<?xml version="1.0" encoding="UTF-8"?>

<!-- generated on 2025-03-11 12:40:12 by Eclipse SUMO netedit Version 1.13.0
<configuration xmlns:xsi="http://www.w3.org/2001/XMLSchema-instance" xsi:noNamespaceSchemaLocation="http://sumo.dlr.de/xsd/netconvertConfiguration.xsd">

    <input>
        <sumo-net-file value="D:\OneDrive%20-%20tongji.edu.cn\桌面\搞新的\Code\Chapter5\LCSG-downstream\SubFile\SubTry1.net.xml"/>
    </input>

    <output>
        <output-file value="D:\OneDrive%20-%20tongji.edu.cn\桌面\搞新的\Code\Chapter5\LCSG-downstream\SubFile\SubTry1.net.xml"/>
    </output>

    <processing>
        <geometry.min-radius.fix.railways value="false"/>
        <geometry.max-grade.fix value="false"/>
        <offset.disable-normalization value="true"/>
        <lefthand value="false"/>
    </processing>

    <junctions>
        <no-turnarounds value="true"/>
        <junctions.corner-detail value="5"/>
        <junctions.limit-turn-speed value="5.5"/>
        <rectangular-lane-cut value="false"/>
    </junctions>

    <pedestrian>
        <walkingareas value="false"/>
    </pedestrian>

    <report>
        <aggregate-warnings value="5"/>
    </report>

</configuration>
-->

<net version="1.9" junctionCornerDetail="5" limitTurnSpeed="5.50" xmlns:xsi="http://www.w3.org/2001/XMLSchema-instance" xsi:noNamespaceSchemaLocation="http://sumo.dlr.de/xsd/net_file.xsd">

    <location netOffset="0.00,0.00" convBoundary="0.00,-53.54,1335.00,60.00" origBoundary="-10000000000.00,-10000000000.00,10000000000.00,10000000000.00" projParameter="!"/>

    <edge id=":J1_0" function="internal">
        <lane id=":J1_0_0" index="0" speed="16.66" length="32.38" shape="324.23,55.91 332.66,56.10 342.00,54.64 350.42,52.65 356.09,51.26"/>
    </edge>
    <edge id=":J1_1" function="internal">
        <lane id=":J1_1_0" index="0" speed="22.22" length="32.62" shape="324.23,55.91 332.01,56.58 340.29,56.25 348.60,55.57 356.48,55.20"/>
        <lane id=":J1_1_1" index="1" speed="22.22" length="32.62" shape="323.64,59.05 331.51,59.73 339.99,59.42 348.51,58.76 356.48,58.40"/>
    </edge>
    <edge id=":J2_0" function="internal">
        <lane id=":J2_0_0" index="0" speed="18.05" length="0.10" shape="1315.00,55.20 1315.00,55.20"/>
        <lane id=":J2_0_1" index="1" speed="18.05" length="0.10" shape="1315.00,58.40 1315.00,58.40"/>
    </edge>
    <edge id=":J5_0" function="internal">
        <lane id=":J5_0_0" index="0" speed="22.22" length="0.10" shape="863.47,55.20 863.47,55.20"/>
        <lane id=":J5_0_1" index="1" speed="22.22" length="0.10" shape="863.47,58.40 863.47,58.40"/>
    </edge>

    <edge id="M1" from="J0" to="J1" priority="-1" length="425.00">
        <lane id="M1_0" index="0" speed="22.22" length="425.00" shape="0.88,-4.72 324.23,55.91"/>
        <lane id="M1_1" index="1" speed="22.22" length="425.00" shape="0.29,-1.57 323.64,59.05"/>
    </edge>
    <edge id="M2" from="J1" to="J5" priority="-1" length="500.00">
        <lane id="M2_0" index="0" speed="22.22" length="500.00" shape="356.48,55.20 863.47,55.20"/>
        <lane id="M2_1" index="1" speed="22.22" length="500.00" shape="356.48,58.40 863.47,58.40"/>
    </edge>
    <edge id="M3" from="J5" to="J2" priority="-1" length="495.00">
        <lane id="M3_0" index="0" speed="22.22" length="495.00" shape="863.47,55.20 1315.00,55.20"/>
        <lane id="M3_1" index="1" speed="22.22" length="495.00" shape="863.47,58.40 1315.00,58.40"/>
    </edge>
    <edge id="M4" from="J2" to="J3" priority="-1">
        <lane id="M4_0" index="0" speed="13.89" length="20.00" shape="1315.00,55.20 1335.00,55.20"/>
        <lane id="M4_1" index="1" speed="13.89" length="20.00" shape="1315.00,58.40 1335.00,58.40"/>
    </edge>
    <edge id="O1" from="J1" to="J10" priority="-1">
        <lane id="O1_0" index="0" speed="11.11" length="64.38" shape="356.09,51.26 419.25,38.81"/>
    </edge>
    <edge id="o" from="J6" to="J7" priority="-1">
        <lane id="o_0" index="0" speed="13.89" length="49.61" shape="84.14,-55.14 133.75,-55.14"/>
    </edge>

    <junction id="J0" type="dead_end" x="0.00" y="0.00" incLanes="" intLanes="" shape="0.00,0.00 1.18,-6.29"/>
    <junction id="J1" type="priority" x="320.00" y="60.00" incLanes="M1_0 M1_1" intLanes=":J1_0_0 :J1_1_0 :J1_1_1" shape="356.48,60.00 356.48,53.60 356.40,52.83 355.78,49.69 349.16,51.29 344.24,52.90 340.16,54.25 336.08,55.10 331.15,55.21 324.52,54.34 323.34,60.63 330.30,61.64 335.49,61.82 339.80,61.46 344.14,60.84 349.40,60.26" customShape="1">
        <request index="0" response="000" foes="000" cont="0"/>
        <request index="1" response="000" foes="000" cont="0"/>
        <request index="2" response="000" foes="000" cont="0"/>
    </junction>
    <junction id="J10" type="dead_end" x="419.56" y="40.38" incLanes="O1_0" intLanes="" shape="418.94,37.24 419.56,40.38"/>
    <junction id="J2" type="priority" x="1315.00" y="60.00" incLanes="M3_0 M3_1" intLanes=":J2_0_0 :J2_0_1" shape="1315.00,60.00 1315.00,53.60 1315.00,60.00">
        <request index="0" response="00" foes="00" cont="0"/>
        <request index="1" response="00" foes="00" cont="0"/>
    </junction>
    <junction id="J3" type="dead_end" x="1335.00" y="60.00" incLanes="M4_0 M4_1" intLanes="" shape="1335.00,53.60 1335.00,60.00"/>
    <junction id="J5" type="priority" x="863.47" y="60.00" incLanes="M2_0 M2_1" intLanes=":J5_0_0 :J5_0_1" shape="863.47,60.00 863.47,53.60 863.47,60.00">
        <request index="0" response="00" foes="00" cont="0"/>
        <request index="1" response="00" foes="00" cont="0"/>
    </junction>
    <junction id="J6" type="dead_end" x="84.14" y="-53.54" incLanes="" intLanes="" shape="84.14,-53.54 84.14,-56.74"/>
    <junction id="J7" type="dead_end" x="133.75" y="-53.54" incLanes="o_0" intLanes="" shape="133.75,-56.74 133.75,-53.54"/>

    <connection from="M1" to="O1" fromLane="0" toLane="0" via=":J1_0_0" dir="R" state="M"/>
    <connection from="M1" to="M2" fromLane="0" toLane="0" via=":J1_1_0" dir="s" state="M"/>
    <connection from="M1" to="M2" fromLane="1" toLane="1" via=":J1_1_1" dir="s" state="M"/>
    <connection from="M2" to="M3" fromLane="0" toLane="0" via=":J5_0_0" dir="s" state="M"/>
    <connection from="M2" to="M3" fromLane="1" toLane="1" via=":J5_0_1" dir="s" state="M"/>
    <connection from="M3" to="M4" fromLane="0" toLane="0" via=":J2_0_0" dir="s" state="M"/>
    <connection from="M3" to="M4" fromLane="1" toLane="1" via=":J2_0_1" dir="s" state="M"/>

    <connection from=":J1_0" to="O1" fromLane="0" toLane="0" dir="R" state="M"/>
    <connection from=":J1_1" to="M2" fromLane="0" toLane="0" dir="s" state="M"/>
    <connection from=":J1_1" to="M2" fromLane="1" toLane="1" dir="s" state="M"/>
    <connection from=":J2_0" to="M4" fromLane="0" toLane="0" dir="s" state="M"/>
    <connection from=":J2_0" to="M4" fromLane="1" toLane="1" dir="s" state="M"/>
    <connection from=":J5_0" to="M3" fromLane="0" toLane="0" dir="s" state="M"/>
    <connection from=":J5_0" to="M3" fromLane="1" toLane="1" dir="s" state="M"/>

</net>
