<?xml version="1.0" encoding="UTF-8"?>

<configuration>

    <input>
        <net-file value="SubTry2.net.xml"/>
        <route-files value="SubTry.rou.xml"/>
        <additional-files value="addition2.xml"/>
    </input>
 
    <time>
        <begin value="0"/>
        <end value="60"/>
        <step-length value="1"/>
    </time>

    <processing>
        <lanechange.duration value="3"/>
    </processing>

    <gui_only>
        <start value="true"/>
    </gui_only>

</configuration>