<?xml version="1.0" encoding="UTF-8"?>

<!-- generated on 2025-01-03 19:43:15 by Eclipse SUMO netedit Version 1.13.0
<configuration xmlns:xsi="http://www.w3.org/2001/XMLSchema-instance" xsi:noNamespaceSchemaLocation="http://sumo.dlr.de/xsd/netconvertConfiguration.xsd">

    <input>
        <sumo-net-file value="D:\OneDrive%20-%20tongji.edu.cn\桌面\搞新的\Code\Chapter5\LC-multiLanes\SubFile\SubTry.net.xml"/>
    </input>

    <output>
        <output-file value="D:\OneDrive%20-%20tongji.edu.cn\桌面\搞新的\Code\Chapter5\LC-multiLanes\SubFile\SubTry.net.xml"/>
    </output>

    <processing>
        <geometry.min-radius.fix.railways value="false"/>
        <geometry.max-grade.fix value="false"/>
        <offset.disable-normalization value="true"/>
        <lefthand value="false"/>
    </processing>

    <junctions>
        <no-turnarounds value="true"/>
        <junctions.corner-detail value="5"/>
        <junctions.limit-turn-speed value="5.5"/>
        <rectangular-lane-cut value="false"/>
    </junctions>

    <pedestrian>
        <walkingareas value="false"/>
    </pedestrian>

    <report>
        <aggregate-warnings value="5"/>
    </report>

</configuration>
-->

<net version="1.9" junctionCornerDetail="5" limitTurnSpeed="5.50" xmlns:xsi="http://www.w3.org/2001/XMLSchema-instance" xsi:noNamespaceSchemaLocation="http://sumo.dlr.de/xsd/net_file.xsd">

    <location netOffset="0.00,0.00" convBoundary="0.00,-20.00,2200.00,0.00" origBoundary="-10000000000.00,-10000000000.00,10000000000.00,10000000000.00" projParameter="!"/>

    <edge id=":J1_0" function="internal">
        <lane id=":J1_0_0" index="0" speed="13.89" length="8.27" shape="1996.00,-8.00 1998.46,-7.50 2000.00,-6.40 2001.54,-5.30 2004.00,-4.80"/>
        <lane id=":J1_0_1" index="1" speed="13.89" length="8.27" shape="1996.00,-4.80 2004.00,-4.80"/>
        <lane id=":J1_0_2" index="2" speed="13.89" length="8.27" shape="1996.00,-1.60 2004.00,-1.60"/>
    </edge>
    <edge id=":J4_0" function="internal">
        <lane id=":J4_0_0" index="0" speed="16.67" length="0.10" shape="500.00,-8.00 500.00,-8.00"/>
        <lane id=":J4_0_1" index="1" speed="16.67" length="0.10" shape="500.00,-4.80 500.00,-4.80"/>
        <lane id=":J4_0_2" index="2" speed="16.67" length="0.10" shape="500.00,-1.60 500.00,-1.60"/>
    </edge>
    <edge id=":J6_0" function="internal">
        <lane id=":J6_0_0" index="0" speed="16.67" length="0.10" shape="1000.00,-8.00 1000.00,-8.00"/>
        <lane id=":J6_0_1" index="1" speed="16.67" length="0.10" shape="1000.00,-4.80 1000.00,-4.80"/>
        <lane id=":J6_0_2" index="2" speed="16.67" length="0.10" shape="1000.00,-1.60 1000.00,-1.60"/>
    </edge>
    <edge id=":J7_0" function="internal">
        <lane id=":J7_0_0" index="0" speed="16.67" length="0.10" shape="1500.00,-8.00 1500.00,-8.00"/>
        <lane id=":J7_0_1" index="1" speed="16.67" length="0.10" shape="1500.00,-4.80 1500.00,-4.80"/>
        <lane id=":J7_0_2" index="2" speed="16.67" length="0.10" shape="1500.00,-1.60 1500.00,-1.60"/>
    </edge>

    <edge id="Input" from="J0" to="J4" priority="-1" length="500.00">
        <lane id="Input_0" index="0" speed="16.67" length="500.00" shape="0.00,-8.00 500.00,-8.00"/>
        <lane id="Input_1" index="1" speed="16.67" length="500.00" shape="0.00,-4.80 500.00,-4.80"/>
        <lane id="Input_2" index="2" speed="16.67" length="500.00" shape="0.00,-1.60 500.00,-1.60"/>
    </edge>
    <edge id="Input.1" from="J4" to="J6" priority="-1" length="500.00">
        <lane id="Input.1_0" index="0" speed="16.67" length="500.00" shape="500.00,-8.00 1000.00,-8.00"/>
        <lane id="Input.1_1" index="1" speed="16.67" length="500.00" shape="500.00,-4.80 1000.00,-4.80"/>
        <lane id="Input.1_2" index="2" speed="16.67" length="500.00" shape="500.00,-1.60 1000.00,-1.60"/>
    </edge>
    <edge id="Input.2" from="J6" to="J7" priority="-1" length="500.00">
        <lane id="Input.2_0" index="0" speed="16.67" length="500.00" shape="1000.00,-8.00 1500.00,-8.00"/>
        <lane id="Input.2_1" index="1" speed="16.67" length="500.00" shape="1000.00,-4.80 1500.00,-4.80"/>
        <lane id="Input.2_2" index="2" speed="16.67" length="500.00" shape="1000.00,-1.60 1500.00,-1.60"/>
    </edge>
    <edge id="Input.3" from="J7" to="J1" priority="-1" length="500.00">
        <lane id="Input.3_0" index="0" speed="16.67" length="500.00" shape="1500.00,-8.00 1996.00,-8.00"/>
        <lane id="Input.3_1" index="1" speed="16.67" length="500.00" shape="1500.00,-4.80 1996.00,-4.80"/>
        <lane id="Input.3_2" index="2" speed="16.67" length="500.00" shape="1500.00,-1.60 1996.00,-1.60"/>
    </edge>
    <edge id="Output" from="J1" to="J5" priority="-1" length="200.00">
        <lane id="Output_0" index="0" speed="11.11" length="200.00" shape="2004.00,-4.80 2200.00,-4.80"/>
        <lane id="Output_1" index="1" speed="11.11" length="200.00" shape="2004.00,-1.60 2200.00,-1.60"/>
    </edge>
    <edge id="o" from="J2" to="J3" priority="-1">
        <lane id="o_0" index="0" speed="13.89" length="50.00" shape="0.00,-21.60 50.00,-21.60"/>
    </edge>

    <junction id="J0" type="dead_end" x="0.00" y="0.00" incLanes="" intLanes="" shape="0.00,0.00 0.00,-9.60"/>
    <junction id="J1" type="priority" x="2000.00" y="0.00" incLanes="Input.3_0 Input.3_1 Input.3_2" intLanes=":J1_0_0 :J1_0_1 :J1_0_2" shape="2004.00,0.00 2004.00,-6.40 2000.97,-7.23 1999.03,-8.77 1997.79,-9.36 1996.00,-9.60 1996.00,0.00">
        <request index="0" response="010" foes="010" cont="0"/>
        <request index="1" response="000" foes="001" cont="0"/>
        <request index="2" response="000" foes="000" cont="0"/>
    </junction>
    <junction id="J2" type="dead_end" x="0.00" y="-20.00" incLanes="" intLanes="" shape="0.00,-20.00 0.00,-23.20"/>
    <junction id="J3" type="dead_end" x="50.00" y="-20.00" incLanes="o_0" intLanes="" shape="50.00,-23.20 50.00,-20.00"/>
    <junction id="J4" type="priority" x="500.00" y="0.00" incLanes="Input_0 Input_1 Input_2" intLanes=":J4_0_0 :J4_0_1 :J4_0_2" shape="500.00,0.00 500.00,-9.60 500.00,0.00">
        <request index="0" response="000" foes="000" cont="0"/>
        <request index="1" response="000" foes="000" cont="0"/>
        <request index="2" response="000" foes="000" cont="0"/>
    </junction>
    <junction id="J5" type="dead_end" x="2200.00" y="0.00" incLanes="Output_0 Output_1" intLanes="" shape="2200.00,-6.40 2200.00,0.00"/>
    <junction id="J6" type="priority" x="1000.00" y="0.00" incLanes="Input.1_0 Input.1_1 Input.1_2" intLanes=":J6_0_0 :J6_0_1 :J6_0_2" shape="1000.00,0.00 1000.00,-9.60 1000.00,0.00">
        <request index="0" response="000" foes="000" cont="0"/>
        <request index="1" response="000" foes="000" cont="0"/>
        <request index="2" response="000" foes="000" cont="0"/>
    </junction>
    <junction id="J7" type="priority" x="1500.00" y="0.00" incLanes="Input.2_0 Input.2_1 Input.2_2" intLanes=":J7_0_0 :J7_0_1 :J7_0_2" shape="1500.00,0.00 1500.00,-9.60 1500.00,0.00">
        <request index="0" response="000" foes="000" cont="0"/>
        <request index="1" response="000" foes="000" cont="0"/>
        <request index="2" response="000" foes="000" cont="0"/>
    </junction>

    <connection from="Input" to="Input.1" fromLane="0" toLane="0" via=":J4_0_0" dir="s" state="M"/>
    <connection from="Input" to="Input.1" fromLane="1" toLane="1" via=":J4_0_1" dir="s" state="M"/>
    <connection from="Input" to="Input.1" fromLane="2" toLane="2" via=":J4_0_2" dir="s" state="M"/>
    <connection from="Input.1" to="Input.2" fromLane="0" toLane="0" via=":J6_0_0" dir="s" state="M"/>
    <connection from="Input.1" to="Input.2" fromLane="1" toLane="1" via=":J6_0_1" dir="s" state="M"/>
    <connection from="Input.1" to="Input.2" fromLane="2" toLane="2" via=":J6_0_2" dir="s" state="M"/>
    <connection from="Input.2" to="Input.3" fromLane="0" toLane="0" via=":J7_0_0" dir="s" state="M"/>
    <connection from="Input.2" to="Input.3" fromLane="1" toLane="1" via=":J7_0_1" dir="s" state="M"/>
    <connection from="Input.2" to="Input.3" fromLane="2" toLane="2" via=":J7_0_2" dir="s" state="M"/>
    <connection from="Input.3" to="Output" fromLane="0" toLane="0" via=":J1_0_0" dir="s" state="m"/>
    <connection from="Input.3" to="Output" fromLane="1" toLane="0" via=":J1_0_1" dir="s" state="M"/>
    <connection from="Input.3" to="Output" fromLane="2" toLane="1" via=":J1_0_2" dir="s" state="M"/>

    <connection from=":J1_0" to="Output" fromLane="0" toLane="0" dir="s" state="M"/>
    <connection from=":J1_0" to="Output" fromLane="1" toLane="0" dir="s" state="M"/>
    <connection from=":J1_0" to="Output" fromLane="2" toLane="1" dir="s" state="M"/>
    <connection from=":J4_0" to="Input.1" fromLane="0" toLane="0" dir="s" state="M"/>
    <connection from=":J4_0" to="Input.1" fromLane="1" toLane="1" dir="s" state="M"/>
    <connection from=":J4_0" to="Input.1" fromLane="2" toLane="2" dir="s" state="M"/>
    <connection from=":J6_0" to="Input.2" fromLane="0" toLane="0" dir="s" state="M"/>
    <connection from=":J6_0" to="Input.2" fromLane="1" toLane="1" dir="s" state="M"/>
    <connection from=":J6_0" to="Input.2" fromLane="2" toLane="2" dir="s" state="M"/>
    <connection from=":J7_0" to="Input.3" fromLane="0" toLane="0" dir="s" state="M"/>
    <connection from=":J7_0" to="Input.3" fromLane="1" toLane="1" dir="s" state="M"/>
    <connection from=":J7_0" to="Input.3" fromLane="2" toLane="2" dir="s" state="M"/>

</net>
