<?xml version="1.0" ?>
<routes xmlns:xsd="http://www.w3.org/2001/XMLSchema" xmlns:xsi="http://www.w3.org/2001/XMLSchema-instance">
    <vType id="HV" accel="2" decel="4.5" sigma="0.5" length="5" maxSpeed="20" carFollowModel="IDM" actionStepLenth="1" lcStrategic="0" lcKeepRight="0" lcCooperative="0.5" lcSpeedGain="1"/>
    <vType id="CV" accel="2" decel="4.5" sigma="0.5" length="5" maxSpeed="20" carFollowModel="IDM" actionStepLenth="1" lcStrategic="0.5" lcKeepRight="0" lcCooperative="1" lcSpeedGain="0.5"/>
    <vType id="CAV" accel="2" decel="4.5" sigma="0.5" length="5" maxSpeed="20" minGap="2" carFollowModel="Krauss" actionStepLenth="1" lcStrategic="0.5" lcKeepRight="0" lcCooperative="1" lcSpeedGain="0.5"/>
    <flow id="hv_WM1_WM5_0_1800" color="1,0,0" departLane="random" departSpeed="desired" begin="0" end="1800" vehsPerHour="281" type="HV" from="WM1" to="WM5"/>
    <flow id="cv_WM1_WM5_0_1800" color="0,1,0" departLane="random" departSpeed="desired" begin="0" end="1800" vehsPerHour="140" type="CV" from="WM1" to="WM5"/>
    <flow id="cav_WM1_WM5_0_1800" color="0,0,1" departLane="random" departSpeed="desired" begin="0" end="1800" vehsPerHour="281" type="CAV" from="WM1" to="WM5"/>
    <flow id="hv_WM1_WO1_0_1800" color="1,0,0" departLane="random" departSpeed="desired" begin="0" end="1800" vehsPerHour="336" type="HV" from="WM1" to="WO1"/>
    <flow id="cv_WM1_WO1_0_1800" color="0,1,0" departLane="random" departSpeed="desired" begin="0" end="1800" vehsPerHour="168" type="CV" from="WM1" to="WO1"/>
    <flow id="cav_WM1_WO1_0_1800" color="0,0,1" departLane="random" departSpeed="desired" begin="0" end="1800" vehsPerHour="336" type="CAV" from="WM1" to="WO1"/>
    <flow id="hv_WM1_WO2_0_1800" color="1,0,0" departLane="random" departSpeed="desired" begin="0" end="1800" vehsPerHour="70" type="HV" from="WM1" to="WO2"/>
    <flow id="cv_WM1_WO2_0_1800" color="0,1,0" departLane="random" departSpeed="desired" begin="0" end="1800" vehsPerHour="35" type="CV" from="WM1" to="WO2"/>
    <flow id="cav_WM1_WO2_0_1800" color="0,0,1" departLane="random" departSpeed="desired" begin="0" end="1800" vehsPerHour="70" type="CAV" from="WM1" to="WO2"/>
    <flow id="hv_WI1_WM5_0_1800" color="1,0,0" departLane="random" departSpeed="desired" begin="0" end="1800" vehsPerHour="166" type="HV" from="WI1" to="WM5"/>
    <flow id="cv_WI1_WM5_0_1800" color="0,1,0" departLane="random" departSpeed="desired" begin="0" end="1800" vehsPerHour="83" type="CV" from="WI1" to="WM5"/>
    <flow id="cav_WI1_WM5_0_1800" color="0,0,1" departLane="random" departSpeed="desired" begin="0" end="1800" vehsPerHour="166" type="CAV" from="WI1" to="WM5"/>
    <flow id="hv_WI1_WO2_0_1800" color="1,0,0" departLane="random" departSpeed="desired" begin="0" end="1800" vehsPerHour="41" type="HV" from="WI1" to="WO2"/>
    <flow id="cv_WI1_WO2_0_1800" color="0,1,0" departLane="random" departSpeed="desired" begin="0" end="1800" vehsPerHour="20" type="CV" from="WI1" to="WO2"/>
    <flow id="cav_WI1_WO2_0_1800" color="0,0,1" departLane="random" departSpeed="desired" begin="0" end="1800" vehsPerHour="41" type="CAV" from="WI1" to="WO2"/>
    <flow id="hv_EM1_EM5_0_1800" color="1,0,0" departLane="random" departSpeed="desired" begin="0" end="1800" vehsPerHour="928" type="HV" from="EM1" to="EM5"/>
    <flow id="cv_EM1_EM5_0_1800" color="0,1,0" departLane="random" departSpeed="desired" begin="0" end="1800" vehsPerHour="464" type="CV" from="EM1" to="EM5"/>
    <flow id="cav_EM1_EM5_0_1800" color="0,0,1" departLane="random" departSpeed="desired" begin="0" end="1800" vehsPerHour="928" type="CAV" from="EM1" to="EM5"/>
    <flow id="hv_EM1_EO2_0_1800" color="1,0,0" departLane="random" departSpeed="desired" begin="0" end="1800" vehsPerHour="369" type="HV" from="EM1" to="EO2"/>
    <flow id="cv_EM1_EO2_0_1800" color="0,1,0" departLane="random" departSpeed="desired" begin="0" end="1800" vehsPerHour="184" type="CV" from="EM1" to="EO2"/>
    <flow id="cav_EM1_EO2_0_1800" color="0,0,1" departLane="random" departSpeed="desired" begin="0" end="1800" vehsPerHour="369" type="CAV" from="EM1" to="EO2"/>
    <flow id="hv_EI1_EO1_0_1800" color="1,0,0" departLane="random" departSpeed="desired" begin="0" end="1800" vehsPerHour="1600" type="HV" from="EI1" to="EO1"/>
    <flow id="cv_EI1_EO1_0_1800" color="0,1,0" departLane="random" departSpeed="desired" begin="0" end="1800" vehsPerHour="800" type="CV" from="EI1" to="EO1"/>
    <flow id="cav_EI1_EO1_0_1800" color="0,0,1" departLane="random" departSpeed="desired" begin="0" end="1800" vehsPerHour="1600" type="CAV" from="EI1" to="EO1"/>
    <flow id="hv_EI1_EO2_0_1800" color="1,0,0" departLane="random" departSpeed="desired" begin="0" end="1800" vehsPerHour="123" type="HV" from="EI1" to="EO2"/>
    <flow id="cv_EI1_EO2_0_1800" color="0,1,0" departLane="random" departSpeed="desired" begin="0" end="1800" vehsPerHour="61" type="CV" from="EI1" to="EO2"/>
    <flow id="cav_EI1_EO2_0_1800" color="0,0,1" departLane="random" departSpeed="desired" begin="0" end="1800" vehsPerHour="123" type="CAV" from="EI1" to="EO2"/>
    <flow id="hv_EI2_EO2_0_1800" color="1,0,0" departLane="random" departSpeed="desired" begin="0" end="1800" vehsPerHour="123" type="HV" from="EI2" to="EO2"/>
    <flow id="cv_EI2_EO2_0_1800" color="0,1,0" departLane="random" departSpeed="desired" begin="0" end="1800" vehsPerHour="61" type="CV" from="EI2" to="EO2"/>
    <flow id="cav_EI2_EO2_0_1800" color="0,0,1" departLane="random" departSpeed="desired" begin="0" end="1800" vehsPerHour="123" type="CAV" from="EI2" to="EO2"/>
    <flow id="hv_EI3_EM5_0_1800" color="1,0,0" departLane="random" departSpeed="desired" begin="0" end="1800" vehsPerHour="560" type="HV" from="EI3" to="EM5"/>
    <flow id="cv_EI3_EM5_0_1800" color="0,1,0" departLane="random" departSpeed="desired" begin="0" end="1800" vehsPerHour="280" type="CV" from="EI3" to="EM5"/>
    <flow id="cav_EI3_EM5_0_1800" color="0,0,1" departLane="random" departSpeed="desired" begin="0" end="1800" vehsPerHour="560" type="CAV" from="EI3" to="EM5"/>
    <flow id="hv_WM1_WM5_1800_3600" color="1,0,0" departLane="random" departSpeed="desired" begin="1800" end="3600" vehsPerHour="304" type="HV" from="WM1" to="WM5"/>
    <flow id="cv_WM1_WM5_1800_3600" color="0,1,0" departLane="random" departSpeed="desired" begin="1800" end="3600" vehsPerHour="152" type="CV" from="WM1" to="WM5"/>
    <flow id="cav_WM1_WM5_1800_3600" color="0,0,1" departLane="random" departSpeed="desired" begin="1800" end="3600" vehsPerHour="304" type="CAV" from="WM1" to="WM5"/>
    <flow id="hv_WM1_WO1_1800_3600" color="1,0,0" departLane="random" departSpeed="desired" begin="1800" end="3600" vehsPerHour="364" type="HV" from="WM1" to="WO1"/>
    <flow id="cv_WM1_WO1_1800_3600" color="0,1,0" departLane="random" departSpeed="desired" begin="1800" end="3600" vehsPerHour="182" type="CV" from="WM1" to="WO1"/>
    <flow id="cav_WM1_WO1_1800_3600" color="0,0,1" departLane="random" departSpeed="desired" begin="1800" end="3600" vehsPerHour="364" type="CAV" from="WM1" to="WO1"/>
    <flow id="hv_WM1_WO2_1800_3600" color="1,0,0" departLane="random" departSpeed="desired" begin="1800" end="3600" vehsPerHour="76" type="HV" from="WM1" to="WO2"/>
    <flow id="cv_WM1_WO2_1800_3600" color="0,1,0" departLane="random" departSpeed="desired" begin="1800" end="3600" vehsPerHour="38" type="CV" from="WM1" to="WO2"/>
    <flow id="cav_WM1_WO2_1800_3600" color="0,0,1" departLane="random" departSpeed="desired" begin="1800" end="3600" vehsPerHour="76" type="CAV" from="WM1" to="WO2"/>
    <flow id="hv_WI1_WM5_1800_3600" color="1,0,0" departLane="random" departSpeed="desired" begin="1800" end="3600" vehsPerHour="163" type="HV" from="WI1" to="WM5"/>
    <flow id="cv_WI1_WM5_1800_3600" color="0,1,0" departLane="random" departSpeed="desired" begin="1800" end="3600" vehsPerHour="81" type="CV" from="WI1" to="WM5"/>
    <flow id="cav_WI1_WM5_1800_3600" color="0,0,1" departLane="random" departSpeed="desired" begin="1800" end="3600" vehsPerHour="163" type="CAV" from="WI1" to="WM5"/>
    <flow id="hv_WI1_WO2_1800_3600" color="1,0,0" departLane="random" departSpeed="desired" begin="1800" end="3600" vehsPerHour="40" type="HV" from="WI1" to="WO2"/>
    <flow id="cv_WI1_WO2_1800_3600" color="0,1,0" departLane="random" departSpeed="desired" begin="1800" end="3600" vehsPerHour="20" type="CV" from="WI1" to="WO2"/>
    <flow id="cav_WI1_WO2_1800_3600" color="0,0,1" departLane="random" departSpeed="desired" begin="1800" end="3600" vehsPerHour="40" type="CAV" from="WI1" to="WO2"/>
    <flow id="hv_EM1_EM5_1800_3600" color="1,0,0" departLane="random" departSpeed="desired" begin="1800" end="3600" vehsPerHour="1032" type="HV" from="EM1" to="EM5"/>
    <flow id="cv_EM1_EM5_1800_3600" color="0,1,0" departLane="random" departSpeed="desired" begin="1800" end="3600" vehsPerHour="516" type="CV" from="EM1" to="EM5"/>
    <flow id="cav_EM1_EM5_1800_3600" color="0,0,1" departLane="random" departSpeed="desired" begin="1800" end="3600" vehsPerHour="1032" type="CAV" from="EM1" to="EM5"/>
    <flow id="hv_EM1_EO2_1800_3600" color="1,0,0" departLane="random" departSpeed="desired" begin="1800" end="3600" vehsPerHour="576" type="HV" from="EM1" to="EO2"/>
    <flow id="cv_EM1_EO2_1800_3600" color="0,1,0" departLane="random" departSpeed="desired" begin="1800" end="3600" vehsPerHour="288" type="CV" from="EM1" to="EO2"/>
    <flow id="cav_EM1_EO2_1800_3600" color="0,0,1" departLane="random" departSpeed="desired" begin="1800" end="3600" vehsPerHour="576" type="CAV" from="EM1" to="EO2"/>
    <flow id="hv_EI1_EO1_1800_3600" color="1,0,0" departLane="random" departSpeed="desired" begin="1800" end="3600" vehsPerHour="1220" type="HV" from="EI1" to="EO1"/>
    <flow id="cv_EI1_EO1_1800_3600" color="0,1,0" departLane="random" departSpeed="desired" begin="1800" end="3600" vehsPerHour="610" type="CV" from="EI1" to="EO1"/>
    <flow id="cav_EI1_EO1_1800_3600" color="0,0,1" departLane="random" departSpeed="desired" begin="1800" end="3600" vehsPerHour="1220" type="CAV" from="EI1" to="EO1"/>
    <flow id="hv_EI1_EO2_1800_3600" color="1,0,0" departLane="random" departSpeed="desired" begin="1800" end="3600" vehsPerHour="192" type="HV" from="EI1" to="EO2"/>
    <flow id="cv_EI1_EO2_1800_3600" color="0,1,0" departLane="random" departSpeed="desired" begin="1800" end="3600" vehsPerHour="96" type="CV" from="EI1" to="EO2"/>
    <flow id="cav_EI1_EO2_1800_3600" color="0,0,1" departLane="random" departSpeed="desired" begin="1800" end="3600" vehsPerHour="192" type="CAV" from="EI1" to="EO2"/>
    <flow id="hv_EI2_EO2_1800_3600" color="1,0,0" departLane="random" departSpeed="desired" begin="1800" end="3600" vehsPerHour="192" type="HV" from="EI2" to="EO2"/>
    <flow id="cv_EI2_EO2_1800_3600" color="0,1,0" departLane="random" departSpeed="desired" begin="1800" end="3600" vehsPerHour="96" type="CV" from="EI2" to="EO2"/>
    <flow id="cav_EI2_EO2_1800_3600" color="0,0,1" departLane="random" departSpeed="desired" begin="1800" end="3600" vehsPerHour="192" type="CAV" from="EI2" to="EO2"/>
    <flow id="hv_EI3_EM5_1800_3600" color="1,0,0" departLane="random" departSpeed="desired" begin="1800" end="3600" vehsPerHour="784" type="HV" from="EI3" to="EM5"/>
    <flow id="cv_EI3_EM5_1800_3600" color="0,1,0" departLane="random" departSpeed="desired" begin="1800" end="3600" vehsPerHour="392" type="CV" from="EI3" to="EM5"/>
    <flow id="cav_EI3_EM5_1800_3600" color="0,0,1" departLane="random" departSpeed="desired" begin="1800" end="3600" vehsPerHour="784" type="CAV" from="EI3" to="EM5"/>
    <flow id="hv_WM1_WM5_3600_5400" color="1,0,0" departLane="random" departSpeed="desired" begin="3600" end="5400" vehsPerHour="284" type="HV" from="WM1" to="WM5"/>
    <flow id="cv_WM1_WM5_3600_5400" color="0,1,0" departLane="random" departSpeed="desired" begin="3600" end="5400" vehsPerHour="142" type="CV" from="WM1" to="WM5"/>
    <flow id="cav_WM1_WM5_3600_5400" color="0,0,1" departLane="random" departSpeed="desired" begin="3600" end="5400" vehsPerHour="284" type="CAV" from="WM1" to="WM5"/>
    <flow id="hv_WM1_WO1_3600_5400" color="1,0,0" departLane="random" departSpeed="desired" begin="3600" end="5400" vehsPerHour="572" type="HV" from="WM1" to="WO1"/>
    <flow id="cv_WM1_WO1_3600_5400" color="0,1,0" departLane="random" departSpeed="desired" begin="3600" end="5400" vehsPerHour="286" type="CV" from="WM1" to="WO1"/>
    <flow id="cav_WM1_WO1_3600_5400" color="0,0,1" departLane="random" departSpeed="desired" begin="3600" end="5400" vehsPerHour="572" type="CAV" from="WM1" to="WO1"/>
    <flow id="hv_WM1_WO2_3600_5400" color="1,0,0" departLane="random" departSpeed="desired" begin="3600" end="5400" vehsPerHour="71" type="HV" from="WM1" to="WO2"/>
    <flow id="cv_WM1_WO2_3600_5400" color="0,1,0" departLane="random" departSpeed="desired" begin="3600" end="5400" vehsPerHour="35" type="CV" from="WM1" to="WO2"/>
    <flow id="cav_WM1_WO2_3600_5400" color="0,0,1" departLane="random" departSpeed="desired" begin="3600" end="5400" vehsPerHour="71" type="CAV" from="WM1" to="WO2"/>
    <flow id="hv_WI1_WM5_3600_5400" color="1,0,0" departLane="random" departSpeed="desired" begin="3600" end="5400" vehsPerHour="352" type="HV" from="WI1" to="WM5"/>
    <flow id="cv_WI1_WM5_3600_5400" color="0,1,0" departLane="random" departSpeed="desired" begin="3600" end="5400" vehsPerHour="176" type="CV" from="WI1" to="WM5"/>
    <flow id="cav_WI1_WM5_3600_5400" color="0,0,1" departLane="random" departSpeed="desired" begin="3600" end="5400" vehsPerHour="352" type="CAV" from="WI1" to="WM5"/>
    <flow id="hv_WI1_WO2_3600_5400" color="1,0,0" departLane="random" departSpeed="desired" begin="3600" end="5400" vehsPerHour="88" type="HV" from="WI1" to="WO2"/>
    <flow id="cv_WI1_WO2_3600_5400" color="0,1,0" departLane="random" departSpeed="desired" begin="3600" end="5400" vehsPerHour="44" type="CV" from="WI1" to="WO2"/>
    <flow id="cav_WI1_WO2_3600_5400" color="0,0,1" departLane="random" departSpeed="desired" begin="3600" end="5400" vehsPerHour="88" type="CAV" from="WI1" to="WO2"/>
    <flow id="hv_EM1_EM5_3600_5400" color="1,0,0" departLane="random" departSpeed="desired" begin="3600" end="5400" vehsPerHour="968" type="HV" from="EM1" to="EM5"/>
    <flow id="cv_EM1_EM5_3600_5400" color="0,1,0" departLane="random" departSpeed="desired" begin="3600" end="5400" vehsPerHour="484" type="CV" from="EM1" to="EM5"/>
    <flow id="cav_EM1_EM5_3600_5400" color="0,0,1" departLane="random" departSpeed="desired" begin="3600" end="5400" vehsPerHour="968" type="CAV" from="EM1" to="EM5"/>
    <flow id="hv_EM1_EO2_3600_5400" color="1,0,0" departLane="random" departSpeed="desired" begin="3600" end="5400" vehsPerHour="602" type="HV" from="EM1" to="EO2"/>
    <flow id="cv_EM1_EO2_3600_5400" color="0,1,0" departLane="random" departSpeed="desired" begin="3600" end="5400" vehsPerHour="301" type="CV" from="EM1" to="EO2"/>
    <flow id="cav_EM1_EO2_3600_5400" color="0,0,1" departLane="random" departSpeed="desired" begin="3600" end="5400" vehsPerHour="602" type="CAV" from="EM1" to="EO2"/>
    <flow id="hv_EI1_EO1_3600_5400" color="1,0,0" departLane="random" departSpeed="desired" begin="3600" end="5400" vehsPerHour="1476" type="HV" from="EI1" to="EO1"/>
    <flow id="cv_EI1_EO1_3600_5400" color="0,1,0" departLane="random" departSpeed="desired" begin="3600" end="5400" vehsPerHour="738" type="CV" from="EI1" to="EO1"/>
    <flow id="cav_EI1_EO1_3600_5400" color="0,0,1" departLane="random" departSpeed="desired" begin="3600" end="5400" vehsPerHour="1476" type="CAV" from="EI1" to="EO1"/>
    <flow id="hv_EI1_EO2_3600_5400" color="1,0,0" departLane="random" departSpeed="desired" begin="3600" end="5400" vehsPerHour="200" type="HV" from="EI1" to="EO2"/>
    <flow id="cv_EI1_EO2_3600_5400" color="0,1,0" departLane="random" departSpeed="desired" begin="3600" end="5400" vehsPerHour="100" type="CV" from="EI1" to="EO2"/>
    <flow id="cav_EI1_EO2_3600_5400" color="0,0,1" departLane="random" departSpeed="desired" begin="3600" end="5400" vehsPerHour="200" type="CAV" from="EI1" to="EO2"/>
    <flow id="hv_EI2_EO2_3600_5400" color="1,0,0" departLane="random" departSpeed="desired" begin="3600" end="5400" vehsPerHour="200" type="HV" from="EI2" to="EO2"/>
    <flow id="cv_EI2_EO2_3600_5400" color="0,1,0" departLane="random" departSpeed="desired" begin="3600" end="5400" vehsPerHour="100" type="CV" from="EI2" to="EO2"/>
    <flow id="cav_EI2_EO2_3600_5400" color="0,0,1" departLane="random" departSpeed="desired" begin="3600" end="5400" vehsPerHour="200" type="CAV" from="EI2" to="EO2"/>
    <flow id="hv_EI3_EM5_3600_5400" color="1,0,0" departLane="random" departSpeed="desired" begin="3600" end="5400" vehsPerHour="916" type="HV" from="EI3" to="EM5"/>
    <flow id="cv_EI3_EM5_3600_5400" color="0,1,0" departLane="random" departSpeed="desired" begin="3600" end="5400" vehsPerHour="458" type="CV" from="EI3" to="EM5"/>
    <flow id="cav_EI3_EM5_3600_5400" color="0,0,1" departLane="random" departSpeed="desired" begin="3600" end="5400" vehsPerHour="916" type="CAV" from="EI3" to="EM5"/>
    <flow id="hv_WM1_WM5_5400_7200" color="1,0,0" departLane="random" departSpeed="desired" begin="5400" end="7200" vehsPerHour="323" type="HV" from="WM1" to="WM5"/>
    <flow id="cv_WM1_WM5_5400_7200" color="0,1,0" departLane="random" departSpeed="desired" begin="5400" end="7200" vehsPerHour="161" type="CV" from="WM1" to="WM5"/>
    <flow id="cav_WM1_WM5_5400_7200" color="0,0,1" departLane="random" departSpeed="desired" begin="5400" end="7200" vehsPerHour="323" type="CAV" from="WM1" to="WM5"/>
    <flow id="hv_WM1_WO1_5400_7200" color="1,0,0" departLane="random" departSpeed="desired" begin="5400" end="7200" vehsPerHour="508" type="HV" from="WM1" to="WO1"/>
    <flow id="cv_WM1_WO1_5400_7200" color="0,1,0" departLane="random" departSpeed="desired" begin="5400" end="7200" vehsPerHour="254" type="CV" from="WM1" to="WO1"/>
    <flow id="cav_WM1_WO1_5400_7200" color="0,0,1" departLane="random" departSpeed="desired" begin="5400" end="7200" vehsPerHour="508" type="CAV" from="WM1" to="WO1"/>
    <flow id="hv_WM1_WO2_5400_7200" color="1,0,0" departLane="random" departSpeed="desired" begin="5400" end="7200" vehsPerHour="80" type="HV" from="WM1" to="WO2"/>
    <flow id="cv_WM1_WO2_5400_7200" color="0,1,0" departLane="random" departSpeed="desired" begin="5400" end="7200" vehsPerHour="40" type="CV" from="WM1" to="WO2"/>
    <flow id="cav_WM1_WO2_5400_7200" color="0,0,1" departLane="random" departSpeed="desired" begin="5400" end="7200" vehsPerHour="80" type="CAV" from="WM1" to="WO2"/>
    <flow id="hv_WI1_WM5_5400_7200" color="1,0,0" departLane="random" departSpeed="desired" begin="5400" end="7200" vehsPerHour="400" type="HV" from="WI1" to="WM5"/>
    <flow id="cv_WI1_WM5_5400_7200" color="0,1,0" departLane="random" departSpeed="desired" begin="5400" end="7200" vehsPerHour="200" type="CV" from="WI1" to="WM5"/>
    <flow id="cav_WI1_WM5_5400_7200" color="0,0,1" departLane="random" departSpeed="desired" begin="5400" end="7200" vehsPerHour="400" type="CAV" from="WI1" to="WM5"/>
    <flow id="hv_WI1_WO2_5400_7200" color="1,0,0" departLane="random" departSpeed="desired" begin="5400" end="7200" vehsPerHour="100" type="HV" from="WI1" to="WO2"/>
    <flow id="cv_WI1_WO2_5400_7200" color="0,1,0" departLane="random" departSpeed="desired" begin="5400" end="7200" vehsPerHour="50" type="CV" from="WI1" to="WO2"/>
    <flow id="cav_WI1_WO2_5400_7200" color="0,0,1" departLane="random" departSpeed="desired" begin="5400" end="7200" vehsPerHour="100" type="CAV" from="WI1" to="WO2"/>
    <flow id="hv_EM1_EM5_5400_7200" color="1,0,0" departLane="random" departSpeed="desired" begin="5400" end="7200" vehsPerHour="900" type="HV" from="EM1" to="EM5"/>
    <flow id="cv_EM1_EM5_5400_7200" color="0,1,0" departLane="random" departSpeed="desired" begin="5400" end="7200" vehsPerHour="450" type="CV" from="EM1" to="EM5"/>
    <flow id="cav_EM1_EM5_5400_7200" color="0,0,1" departLane="random" departSpeed="desired" begin="5400" end="7200" vehsPerHour="900" type="CAV" from="EM1" to="EM5"/>
    <flow id="hv_EM1_EO2_5400_7200" color="1,0,0" departLane="random" departSpeed="desired" begin="5400" end="7200" vehsPerHour="372" type="HV" from="EM1" to="EO2"/>
    <flow id="cv_EM1_EO2_5400_7200" color="0,1,0" departLane="random" departSpeed="desired" begin="5400" end="7200" vehsPerHour="186" type="CV" from="EM1" to="EO2"/>
    <flow id="cav_EM1_EO2_5400_7200" color="0,0,1" departLane="random" departSpeed="desired" begin="5400" end="7200" vehsPerHour="372" type="CAV" from="EM1" to="EO2"/>
    <flow id="hv_EI1_EO1_5400_7200" color="1,0,0" departLane="random" departSpeed="desired" begin="5400" end="7200" vehsPerHour="1440" type="HV" from="EI1" to="EO1"/>
    <flow id="cv_EI1_EO1_5400_7200" color="0,1,0" departLane="random" departSpeed="desired" begin="5400" end="7200" vehsPerHour="720" type="CV" from="EI1" to="EO1"/>
    <flow id="cav_EI1_EO1_5400_7200" color="0,0,1" departLane="random" departSpeed="desired" begin="5400" end="7200" vehsPerHour="1440" type="CAV" from="EI1" to="EO1"/>
    <flow id="hv_EI1_EO2_5400_7200" color="1,0,0" departLane="random" departSpeed="desired" begin="5400" end="7200" vehsPerHour="124" type="HV" from="EI1" to="EO2"/>
    <flow id="cv_EI1_EO2_5400_7200" color="0,1,0" departLane="random" departSpeed="desired" begin="5400" end="7200" vehsPerHour="62" type="CV" from="EI1" to="EO2"/>
    <flow id="cav_EI1_EO2_5400_7200" color="0,0,1" departLane="random" departSpeed="desired" begin="5400" end="7200" vehsPerHour="124" type="CAV" from="EI1" to="EO2"/>
    <flow id="hv_EI2_EO2_5400_7200" color="1,0,0" departLane="random" departSpeed="desired" begin="5400" end="7200" vehsPerHour="124" type="HV" from="EI2" to="EO2"/>
    <flow id="cv_EI2_EO2_5400_7200" color="0,1,0" departLane="random" departSpeed="desired" begin="5400" end="7200" vehsPerHour="62" type="CV" from="EI2" to="EO2"/>
    <flow id="cav_EI2_EO2_5400_7200" color="0,0,1" departLane="random" departSpeed="desired" begin="5400" end="7200" vehsPerHour="124" type="CAV" from="EI2" to="EO2"/>
    <flow id="hv_EI3_EM5_5400_7200" color="1,0,0" departLane="random" departSpeed="desired" begin="5400" end="7200" vehsPerHour="612" type="HV" from="EI3" to="EM5"/>
    <flow id="cv_EI3_EM5_5400_7200" color="0,1,0" departLane="random" departSpeed="desired" begin="5400" end="7200" vehsPerHour="306" type="CV" from="EI3" to="EM5"/>
    <flow id="cav_EI3_EM5_5400_7200" color="0,0,1" departLane="random" departSpeed="desired" begin="5400" end="7200" vehsPerHour="612" type="CAV" from="EI3" to="EM5"/>
    <flow id="hv_WM1_WM5_7200_9000" color="1,0,0" departLane="random" departSpeed="desired" begin="7200" end="9000" vehsPerHour="246" type="HV" from="WM1" to="WM5"/>
    <flow id="cv_WM1_WM5_7200_9000" color="0,1,0" departLane="random" departSpeed="desired" begin="7200" end="9000" vehsPerHour="123" type="CV" from="WM1" to="WM5"/>
    <flow id="cav_WM1_WM5_7200_9000" color="0,0,1" departLane="random" departSpeed="desired" begin="7200" end="9000" vehsPerHour="246" type="CAV" from="WM1" to="WM5"/>
    <flow id="hv_WM1_WO1_7200_9000" color="1,0,0" departLane="random" departSpeed="desired" begin="7200" end="9000" vehsPerHour="496" type="HV" from="WM1" to="WO1"/>
    <flow id="cv_WM1_WO1_7200_9000" color="0,1,0" departLane="random" departSpeed="desired" begin="7200" end="9000" vehsPerHour="248" type="CV" from="WM1" to="WO1"/>
    <flow id="cav_WM1_WO1_7200_9000" color="0,0,1" departLane="random" departSpeed="desired" begin="7200" end="9000" vehsPerHour="496" type="CAV" from="WM1" to="WO1"/>
    <flow id="hv_WM1_WO2_7200_9000" color="1,0,0" departLane="random" departSpeed="desired" begin="7200" end="9000" vehsPerHour="61" type="HV" from="WM1" to="WO2"/>
    <flow id="cv_WM1_WO2_7200_9000" color="0,1,0" departLane="random" departSpeed="desired" begin="7200" end="9000" vehsPerHour="30" type="CV" from="WM1" to="WO2"/>
    <flow id="cav_WM1_WO2_7200_9000" color="0,0,1" departLane="random" departSpeed="desired" begin="7200" end="9000" vehsPerHour="61" type="CAV" from="WM1" to="WO2"/>
    <flow id="hv_WI1_WM5_7200_9000" color="1,0,0" departLane="random" departSpeed="desired" begin="7200" end="9000" vehsPerHour="492" type="HV" from="WI1" to="WM5"/>
    <flow id="cv_WI1_WM5_7200_9000" color="0,1,0" departLane="random" departSpeed="desired" begin="7200" end="9000" vehsPerHour="246" type="CV" from="WI1" to="WM5"/>
    <flow id="cav_WI1_WM5_7200_9000" color="0,0,1" departLane="random" departSpeed="desired" begin="7200" end="9000" vehsPerHour="492" type="CAV" from="WI1" to="WM5"/>
    <flow id="hv_WI1_WO2_7200_9000" color="1,0,0" departLane="random" departSpeed="desired" begin="7200" end="9000" vehsPerHour="123" type="HV" from="WI1" to="WO2"/>
    <flow id="cv_WI1_WO2_7200_9000" color="0,1,0" departLane="random" departSpeed="desired" begin="7200" end="9000" vehsPerHour="61" type="CV" from="WI1" to="WO2"/>
    <flow id="cav_WI1_WO2_7200_9000" color="0,0,1" departLane="random" departSpeed="desired" begin="7200" end="9000" vehsPerHour="123" type="CAV" from="WI1" to="WO2"/>
    <flow id="hv_EM1_EM5_7200_9000" color="1,0,0" departLane="random" departSpeed="desired" begin="7200" end="9000" vehsPerHour="1016" type="HV" from="EM1" to="EM5"/>
    <flow id="cv_EM1_EM5_7200_9000" color="0,1,0" departLane="random" departSpeed="desired" begin="7200" end="9000" vehsPerHour="508" type="CV" from="EM1" to="EM5"/>
    <flow id="cav_EM1_EM5_7200_9000" color="0,0,1" departLane="random" departSpeed="desired" begin="7200" end="9000" vehsPerHour="1016" type="CAV" from="EM1" to="EM5"/>
    <flow id="hv_EM1_EO2_7200_9000" color="1,0,0" departLane="random" departSpeed="desired" begin="7200" end="9000" vehsPerHour="602" type="HV" from="EM1" to="EO2"/>
    <flow id="cv_EM1_EO2_7200_9000" color="0,1,0" departLane="random" departSpeed="desired" begin="7200" end="9000" vehsPerHour="301" type="CV" from="EM1" to="EO2"/>
    <flow id="cav_EM1_EO2_7200_9000" color="0,0,1" departLane="random" departSpeed="desired" begin="7200" end="9000" vehsPerHour="602" type="CAV" from="EM1" to="EO2"/>
    <flow id="hv_EI1_EO1_7200_9000" color="1,0,0" departLane="random" departSpeed="desired" begin="7200" end="9000" vehsPerHour="1148" type="HV" from="EI1" to="EO1"/>
    <flow id="cv_EI1_EO1_7200_9000" color="0,1,0" departLane="random" departSpeed="desired" begin="7200" end="9000" vehsPerHour="574" type="CV" from="EI1" to="EO1"/>
    <flow id="cav_EI1_EO1_7200_9000" color="0,0,1" departLane="random" departSpeed="desired" begin="7200" end="9000" vehsPerHour="1148" type="CAV" from="EI1" to="EO1"/>
    <flow id="hv_EI1_EO2_7200_9000" color="1,0,0" departLane="random" departSpeed="desired" begin="7200" end="9000" vehsPerHour="200" type="HV" from="EI1" to="EO2"/>
    <flow id="cv_EI1_EO2_7200_9000" color="0,1,0" departLane="random" departSpeed="desired" begin="7200" end="9000" vehsPerHour="100" type="CV" from="EI1" to="EO2"/>
    <flow id="cav_EI1_EO2_7200_9000" color="0,0,1" departLane="random" departSpeed="desired" begin="7200" end="9000" vehsPerHour="200" type="CAV" from="EI1" to="EO2"/>
    <flow id="hv_EI2_EO2_7200_9000" color="1,0,0" departLane="random" departSpeed="desired" begin="7200" end="9000" vehsPerHour="200" type="HV" from="EI2" to="EO2"/>
    <flow id="cv_EI2_EO2_7200_9000" color="0,1,0" departLane="random" departSpeed="desired" begin="7200" end="9000" vehsPerHour="100" type="CV" from="EI2" to="EO2"/>
    <flow id="cav_EI2_EO2_7200_9000" color="0,0,1" departLane="random" departSpeed="desired" begin="7200" end="9000" vehsPerHour="200" type="CAV" from="EI2" to="EO2"/>
    <flow id="hv_EI3_EM5_7200_9000" color="1,0,0" departLane="random" departSpeed="desired" begin="7200" end="9000" vehsPerHour="932" type="HV" from="EI3" to="EM5"/>
    <flow id="cv_EI3_EM5_7200_9000" color="0,1,0" departLane="random" departSpeed="desired" begin="7200" end="9000" vehsPerHour="466" type="CV" from="EI3" to="EM5"/>
    <flow id="cav_EI3_EM5_7200_9000" color="0,0,1" departLane="random" departSpeed="desired" begin="7200" end="9000" vehsPerHour="932" type="CAV" from="EI3" to="EM5"/>
    <flow id="hv_WM1_WM5_9000_10800" color="1,0,0" departLane="random" departSpeed="desired" begin="9000" end="10800" vehsPerHour="182" type="HV" from="WM1" to="WM5"/>
    <flow id="cv_WM1_WM5_9000_10800" color="0,1,0" departLane="random" departSpeed="desired" begin="9000" end="10800" vehsPerHour="91" type="CV" from="WM1" to="WM5"/>
    <flow id="cav_WM1_WM5_9000_10800" color="0,0,1" departLane="random" departSpeed="desired" begin="9000" end="10800" vehsPerHour="182" type="CAV" from="WM1" to="WM5"/>
    <flow id="hv_WM1_WO1_9000_10800" color="1,0,0" departLane="random" departSpeed="desired" begin="9000" end="10800" vehsPerHour="460" type="HV" from="WM1" to="WO1"/>
    <flow id="cv_WM1_WO1_9000_10800" color="0,1,0" departLane="random" departSpeed="desired" begin="9000" end="10800" vehsPerHour="230" type="CV" from="WM1" to="WO1"/>
    <flow id="cav_WM1_WO1_9000_10800" color="0,0,1" departLane="random" departSpeed="desired" begin="9000" end="10800" vehsPerHour="460" type="CAV" from="WM1" to="WO1"/>
    <flow id="hv_WM1_WO2_9000_10800" color="1,0,0" departLane="random" departSpeed="desired" begin="9000" end="10800" vehsPerHour="45" type="HV" from="WM1" to="WO2"/>
    <flow id="cv_WM1_WO2_9000_10800" color="0,1,0" departLane="random" departSpeed="desired" begin="9000" end="10800" vehsPerHour="22" type="CV" from="WM1" to="WO2"/>
    <flow id="cav_WM1_WO2_9000_10800" color="0,0,1" departLane="random" departSpeed="desired" begin="9000" end="10800" vehsPerHour="45" type="CAV" from="WM1" to="WO2"/>
    <flow id="hv_WI1_WM5_9000_10800" color="1,0,0" departLane="random" departSpeed="desired" begin="9000" end="10800" vehsPerHour="521" type="HV" from="WI1" to="WM5"/>
    <flow id="cv_WI1_WM5_9000_10800" color="0,1,0" departLane="random" departSpeed="desired" begin="9000" end="10800" vehsPerHour="260" type="CV" from="WI1" to="WM5"/>