<?xml version="1.0" ?>
<routes xmlns:xsd="http://www.w3.org/2001/XMLSchema" xmlns:xsi="http://www.w3.org/2001/XMLSchema-instance">
    <vType id="HV" accel="2" decel="4.5" sigma="0.5" length="5" maxSpeed="20" carFollowModel="IDM" actionStepLenth="1" lcStrategic="0.11" lcKeepRight="0" lcCooperative="0.5" lcSpeedGain="1"/>
    <vType id="CV" accel="2" decel="4.5" sigma="0.5" length="5" maxSpeed="20" carFollowModel="IDM" actionStepLenth="1" lcStrategic="0.5" lcKeepRight="0" lcCooperative="1" lcSpeedGain="0.5"/>
    <vType id="CAV" accel="2" decel="4.5" sigma="0.5" length="5" maxSpeed="20" minGap="1.5" carFollowModel="CACC" actionStepLenth="1" lcStrategic="1" lcKeepRight="0" lcCooperative="1" lcSpeedGain="1"/>
<!--	<vType id="CAV-L" accel="2" decel="4.5" sigma="0.5" length="5" maxSpeed="20" carFollowModel="ACC" actionStepLenth="1" lcStrategic="0.5" lcKeepRight="0" lcCooperative="1" lcSpeedGain="0.5"/>-->

    <flow id="hv_M1_M7" color="1,0,0" departLane="random" departSpeed="desired" begin="0" end="1800" vehsPerHour="870" type="HV" from="M1" to="M7"/>
    <flow id="cv_M1_M7" color="0,1,0" departLane="random" departSpeed="desired" begin="0" end="1800" vehsPerHour="290" type="CV" from="M1" to="M7"/>
    <flow id="cav_M1_M7" color="0,0,1" departLane="random" departSpeed="desired" begin="0" end="1800" vehsPerHour="290" type="CAV" from="M1" to="M7"/>

    <flow id="hv_M1_O1" color="1,0,0" departLane="random" departSpeed="desired" begin="0" end="1800" vehsPerHour="30" type="HV" from="M1" to="O1"/>
    <flow id="cv_M1_O1" color="0,1,0" departLane="random" departSpeed="desired" begin="0" end="1800" vehsPerHour="10" type="CV" from="M1" to="O1"/>
    <flow id="cav_M1_O1" color="0,0,1" departLane="random" departSpeed="desired" begin="0" end="1800" vehsPerHour="10" type="CAV" from="M1" to="O1"/>

    <flow id="hv_M1_O2" color="1,0,0" departLane="random" departSpeed="desired" begin="0" end="1800" vehsPerHour="60" type="HV" from="M1" to="O2"/>
    <flow id="cv_M1_O2" color="0,1,0" departLane="random" departSpeed="desired" begin="0" end="1800" vehsPerHour="20" type="CV" from="M1" to="O2"/>
    <flow id="cav_M1_O2" color="0,0,1" departLane="random" departSpeed="desired" begin="0" end="1800" vehsPerHour="20" type="CAV" from="M1" to="O2"/>

    <flow id="hv_I1_M7" color="1,0,0" departLane="random" departSpeed="desired" begin="0" end="1800" vehsPerHour="330" type="HV" from="I1" to="M7"/>
    <flow id="cv_I1_M7" color="0,1,0" departLane="random" departSpeed="desired" begin="0" end="1800" vehsPerHour="110" type="CV" from="I1" to="M7"/>
    <flow id="cav_I1_M7" color="0,0,1" departLane="random" departSpeed="desired" begin="0" end="1800" vehsPerHour="110" type="CAV" from="I1" to="M7"/>

    <flow id="hv_I1_O2" color="1,0,0" departLane="random" departSpeed="desired" begin="0" end="1800" vehsPerHour="30" type="HV" from="I1" to="O2"/>
    <flow id="cv_I1_O2" color="0,1,0" departLane="random" departSpeed="desired" begin="0" end="1800" vehsPerHour="10" type="CV" from="I1" to="O2"/>
    <flow id="cav_I1_O2" color="0,0,1" departLane="random" departSpeed="desired" begin="0" end="1800" vehsPerHour="10" type="CAV" from="I1" to="O2"/>
</routes>
