<?xml version="1.0" encoding="UTF-8"?>

<!-- generated on 2025-01-11 21:12:28 by Eclipse SUMO netedit Version 1.13.0
<configuration xmlns:xsi="http://www.w3.org/2001/XMLSchema-instance" xsi:noNamespaceSchemaLocation="http://sumo.dlr.de/xsd/netconvertConfiguration.xsd">

    <input>
        <sumo-net-file value="D:\OneDrive%20-%20tongji.edu.cn\桌面\搞新的\Code\Chapter5\LCSG-magicData\MainFile\MAGIC.net.xml"/>
    </input>

    <output>
        <output-file value="D:\OneDrive%20-%20tongji.edu.cn\桌面\搞新的\Code\Chapter5\LCSG-magicData\MainFile\MAGIC.net.xml"/>
    </output>

    <processing>
        <geometry.min-radius.fix.railways value="false"/>
        <geometry.max-grade.fix value="false"/>
        <offset.disable-normalization value="true"/>
        <lefthand value="false"/>
    </processing>

    <junctions>
        <no-turnarounds value="true"/>
        <junctions.corner-detail value="5"/>
        <junctions.limit-turn-speed value="5.5"/>
        <rectangular-lane-cut value="false"/>
    </junctions>

    <pedestrian>
        <walkingareas value="false"/>
    </pedestrian>

    <report>
        <aggregate-warnings value="5"/>
    </report>

</configuration>
-->

<net version="1.9" junctionCornerDetail="5" limitTurnSpeed="5.50" xmlns:xsi="http://www.w3.org/2001/XMLSchema-instance" xsi:noNamespaceSchemaLocation="http://sumo.dlr.de/xsd/net_file.xsd">

    <location netOffset="0.00,0.00" convBoundary="0.00,0.00,1965.00,89.91" origBoundary="-10000000000.00,-10000000000.00,10000000000.00,10000000000.00" projParameter="!"/>

    <edge id=":J1_0" function="internal">
        <lane id=":J1_0_0" index="0" speed="13.89" length="17.38" shape="339.34,69.36 335.94,68.18 332.35,67.26 328.04,66.39 322.46,65.34"/>
    </edge>
    <edge id=":J1_1" function="internal">
        <lane id=":J1_1_0" index="0" speed="9.09" length="32.85" shape="339.34,69.36 334.69,64.78 337.90,59.41 346.01,54.49 356.09,51.26"/>
    </edge>
    <edge id=":J1_2" function="internal">
        <lane id=":J1_2_0" index="0" speed="8.02" length="27.29" shape="339.34,69.36 335.99,65.89 339.73,62.32 347.55,59.53 356.48,58.40"/>
    </edge>
    <edge id=":J1_3" function="internal">
        <lane id=":J1_3_0" index="0" speed="13.89" length="33.79" shape="356.48,64.80 348.32,65.14 339.40,65.76 330.51,66.04 322.46,65.34"/>
        <lane id=":J1_3_1" index="1" speed="13.89" length="33.79" shape="356.48,61.60 348.42,61.95 339.70,62.59 331.01,62.88 323.05,62.20"/>
    </edge>
    <edge id=":J1_5" function="internal">
        <lane id=":J1_5_0" index="0" speed="5.84" length="1.77" shape="356.48,61.60 354.86,60.88"/>
    </edge>
    <edge id=":J1_9" function="internal">
        <lane id=":J1_9_0" index="0" speed="5.84" length="12.71" shape="354.86,60.88 353.20,60.14 352.01,56.85 352.96,53.34 356.09,51.26"/>
    </edge>
    <edge id=":J1_6" function="internal">
        <lane id=":J1_6_0" index="0" speed="13.89" length="32.38" shape="324.22,55.91 332.66,56.10 342.00,54.64 350.42,52.65 356.09,51.26"/>
    </edge>
    <edge id=":J1_7" function="internal">
        <lane id=":J1_7_0" index="0" speed="13.89" length="32.62" shape="324.22,55.91 332.00,56.58 340.29,56.25 348.60,55.57 356.48,55.20"/>
        <lane id=":J1_7_1" index="1" speed="13.89" length="32.62" shape="323.63,59.05 331.51,59.73 339.99,59.42 348.51,58.76 356.48,58.40"/>
    </edge>
    <edge id=":J2_0" function="internal">
        <lane id=":J2_0_0" index="0" speed="13.89" length="8.47" shape="1298.10,64.80 1289.63,64.80"/>
        <lane id=":J2_0_1" index="1" speed="13.89" length="8.47" shape="1298.10,61.60 1289.63,61.60"/>
    </edge>
    <edge id=":J2_2" function="internal">
        <lane id=":J2_2_0" index="0" speed="13.89" length="8.43" shape="1289.81,50.79 1292.21,51.48 1293.89,51.84 1295.60,51.98 1298.10,52.00"/>
    </edge>
    <edge id=":J2_3" function="internal">
        <lane id=":J2_3_0" index="0" speed="6.02" length="15.01" shape="1289.81,50.79 1293.05,53.20 1294.13,56.84 1293.00,60.15 1289.63,61.60"/>
    </edge>
    <edge id=":J2_4" function="internal">
        <lane id=":J2_4_0" index="0" speed="13.89" length="8.47" shape="1289.63,55.20 1298.10,55.20"/>
        <lane id=":J2_4_1" index="1" speed="13.89" length="8.47" shape="1289.63,58.40 1298.10,58.40"/>
    </edge>
    <edge id=":J3_0" function="internal">
        <lane id=":J3_0_0" index="0" speed="13.89" length="45.53" shape="1874.97,68.23 1864.57,67.27 1850.61,68.24 1837.54,70.03 1829.79,71.55"/>
    </edge>
    <edge id=":J3_1" function="internal">
        <lane id=":J3_1_0" index="0" speed="13.89" length="46.27" shape="1874.97,68.23 1865.93,66.91 1854.19,66.97 1841.43,67.61 1829.30,68.00"/>
        <lane id=":J3_1_1" index="1" speed="13.89" length="46.27" shape="1875.95,65.18 1866.75,63.84 1854.68,63.85 1841.58,64.43 1829.30,64.80"/>
    </edge>
    <edge id=":J3_3" function="internal">
        <lane id=":J3_3_0" index="0" speed="8.22" length="26.57" shape="1875.95,65.18 1872.25,62.02 1875.29,58.17 1882.34,54.41 1890.68,51.56"/>
    </edge>
    <edge id=":J3_4" function="internal">
        <lane id=":J3_4_0" index="0" speed="7.13" length="21.69" shape="1875.95,65.18 1873.35,62.96 1876.72,60.76 1883.40,59.07 1890.74,58.40"/>
    </edge>
    <edge id=":J3_5" function="internal">
        <lane id=":J3_5_0" index="0" speed="13.89" length="61.77" shape="1890.74,61.60 1879.78,62.96 1860.19,66.07 1840.64,69.42 1829.79,71.55"/>
    </edge>
    <edge id=":J3_6" function="internal">
        <lane id=":J3_6_0" index="0" speed="13.89" length="61.48" shape="1890.74,61.60 1829.30,64.80"/>
        <lane id=":J3_6_1" index="1" speed="13.89" length="61.48" shape="1890.74,61.60 1829.30,61.60"/>
    </edge>
    <edge id=":J3_8" function="internal">
        <lane id=":J3_8_0" index="0" speed="5.80" length="2.13" shape="1890.74,61.60 1888.78,60.74"/>
    </edge>
    <edge id=":J3_13" function="internal">
        <lane id=":J3_13_0" index="0" speed="5.80" length="11.83" shape="1888.78,60.74 1887.62,60.23 1886.60,57.12 1887.63,53.73 1890.68,51.56"/>
    </edge>
    <edge id=":J3_9" function="internal">
        <lane id=":J3_9_0" index="0" speed="13.89" length="61.40" shape="1829.30,52.00 1844.54,52.11 1863.80,52.26 1881.16,52.17 1890.68,51.56"/>
    </edge>
    <edge id=":J3_10" function="internal">
        <lane id=":J3_10_0" index="0" speed="13.89" length="61.52" shape="1829.30,52.00 1890.74,55.20"/>
        <lane id=":J3_10_1" index="1" speed="13.89" length="61.52" shape="1829.30,55.20 1890.74,58.40"/>
    </edge>
    <edge id=":J3_12" function="internal">
        <lane id=":J3_12_0" index="0" speed="6.56" length="1.96" shape="1829.30,58.40 1831.11,59.17"/>
    </edge>
    <edge id=":J3_14" function="internal">
        <lane id=":J3_14_0" index="0" speed="6.56" length="16.32" shape="1831.11,59.17 1833.45,60.18 1834.92,64.23 1833.71,68.66 1829.79,71.55"/>
    </edge>
    <edge id=":J9_0" function="internal">
        <lane id=":J9_0_0" index="0" speed="13.89" length="44.21" shape="1438.14,71.66 1430.68,70.38 1418.02,69.70 1404.42,69.95 1394.17,71.43"/>
    </edge>
    <edge id=":J9_1" function="internal">
        <lane id=":J9_1_0" index="0" speed="13.89" length="46.04" shape="1438.14,71.66 1430.51,69.76 1417.44,67.49 1403.36,65.60 1392.69,64.80"/>
    </edge>
    <edge id=":J9_2" function="internal">
        <lane id=":J9_2_0" index="0" speed="7.40" length="22.64" shape="1438.14,71.66 1433.42,67.57 1431.93,62.08 1433.73,57.26 1438.89,55.20"/>
        <lane id=":J9_2_1" index="1" speed="6.71" length="18.25" shape="1438.14,71.66 1434.36,68.36 1433.21,63.94 1434.71,60.06 1438.89,58.40"/>
    </edge>
    <edge id=":J9_4" function="internal">
        <lane id=":J9_4_0" index="0" speed="13.89" length="45.78" shape="1438.89,68.00 1426.77,67.64 1414.02,67.08 1402.28,67.07 1393.23,68.37"/>
    </edge>
    <edge id=":J9_5" function="internal">
        <lane id=":J9_5_0" index="0" speed="13.89" length="46.21" shape="1438.89,64.80 1392.69,64.80"/>
        <lane id=":J9_5_1" index="1" speed="13.89" length="46.21" shape="1438.89,61.60 1392.69,61.60"/>
    </edge>
    <edge id=":J9_7" function="internal">
        <lane id=":J9_7_0" index="0" speed="13.89" length="46.21" shape="1392.69,52.00 1438.89,52.00"/>
        <lane id=":J9_7_1" index="1" speed="13.89" length="46.21" shape="1392.69,55.20 1438.89,55.20"/>
        <lane id=":J9_7_2" index="2" speed="13.89" length="46.21" shape="1392.69,58.40 1438.89,58.40"/>
    </edge>
    <edge id=":J9_10" function="internal">
        <lane id=":J9_10_0" index="0" speed="5.82" length="1.99" shape="1392.69,58.40 1394.53,59.17"/>
    </edge>
    <edge id=":J9_11" function="internal">
        <lane id=":J9_11_0" index="0" speed="5.82" length="11.86" shape="1394.53,59.17 1395.86,59.73 1397.03,62.77 1396.16,66.12 1393.23,68.37"/>
    </edge>

    <edge id="EI1" from="J15" to="J3" priority="-1">
        <lane id="EI1_0" index="0" speed="13.89" length="83.25" shape="1954.27,93.59 1874.97,68.23"/>
        <lane id="EI1_1" index="1" speed="13.89" length="83.25" shape="1955.24,90.54 1875.95,65.18"/>
    </edge>
    <edge id="EI2" from="J14" to="J9" priority="-1">
        <lane id="EI2_0" index="0" speed="13.89" length="29.44" shape="1465.20,83.26 1438.14,71.66"/>
    </edge>
    <edge id="EI3" from="J8" to="J1" priority="-1" length="100.01">
        <lane id="EI3_0" index="0" speed="13.89" length="100.01" shape="395.15,91.40 339.34,69.36"/>
    </edge>
    <edge id="EM1" from="J4" to="J3" priority="-1">
        <lane id="EM1_0" index="0" speed="13.89" length="74.26" shape="1965.00,61.60 1890.74,61.60"/>
    </edge>
    <edge id="EM2" from="J3" to="J9" priority="-1">
        <lane id="EM2_0" index="0" speed="13.89" length="390.41" shape="1829.30,68.00 1438.89,68.00"/>
        <lane id="EM2_1" index="1" speed="13.89" length="390.41" shape="1829.30,64.80 1438.89,64.80"/>
        <lane id="EM2_2" index="2" speed="13.89" length="390.41" shape="1829.30,61.60 1438.89,61.60"/>
    </edge>
    <edge id="EM3" from="J9" to="J2" priority="-1">
        <lane id="EM3_0" index="0" speed="13.89" length="94.59" shape="1392.69,64.80 1298.10,64.80"/>
        <lane id="EM3_1" index="1" speed="13.89" length="94.59" shape="1392.69,61.60 1298.10,61.60"/>
    </edge>
    <edge id="EM4" from="J2" to="J1" priority="-1">
        <lane id="EM4_0" index="0" speed="13.89" length="933.15" shape="1289.63,64.80 356.48,64.80"/>
        <lane id="EM4_1" index="1" speed="13.89" length="933.15" shape="1289.63,61.60 356.48,61.60"/>
    </edge>
    <edge id="EM5" from="J1" to="J0" priority="-1">
        <lane id="EM5_0" index="0" speed="13.89" length="328.97" shape="322.46,65.34 -0.88,4.72"/>
        <lane id="EM5_1" index="1" speed="13.89" length="328.97" shape="323.05,62.20 -0.29,1.57"/>
    </edge>
    <edge id="EO1" from="J3" to="J16" priority="-1">
        <lane id="EO1_0" index="0" speed="13.89" length="40.94" shape="1829.79,71.55 1790.37,82.61"/>
    </edge>
    <edge id="EO2" from="J9" to="J13" priority="-1">
        <lane id="EO2_0" index="0" speed="13.89" length="26.60" shape="1394.17,71.43 1368.74,79.25"/>
        <lane id="EO2_1" index="1" speed="13.89" length="26.60" shape="1393.23,68.37 1367.80,76.19"/>
    </edge>
    <edge id="WI1" from="J12" to="J2" priority="-1">
        <lane id="WI1_0" index="0" speed="13.89" length="61.10" shape="1231.28,33.26 1289.81,50.79"/>
    </edge>
    <edge id="WM1" from="J0" to="J1" priority="-1" length="325.00">
        <lane id="WM1_0" index="0" speed="13.89" length="325.00" shape="0.88,-4.72 324.22,55.91"/>
        <lane id="WM1_1" index="1" speed="13.89" length="325.00" shape="0.29,-1.57 323.63,59.05"/>
    </edge>
    <edge id="WM2" from="J1" to="J2" priority="-1">
        <lane id="WM2_0" index="0" speed="13.89" length="933.15" shape="356.48,55.20 1289.63,55.20"/>
        <lane id="WM2_1" index="1" speed="13.89" length="933.15" shape="356.48,58.40 1289.63,58.40"/>
    </edge>
    <edge id="WM3" from="J2" to="J9" priority="-1">
        <lane id="WM3_0" index="0" speed="13.89" length="94.59" shape="1298.10,52.00 1392.69,52.00"/>
        <lane id="WM3_1" index="1" speed="13.89" length="94.59" shape="1298.10,55.20 1392.69,55.20"/>
        <lane id="WM3_2" index="2" speed="13.89" length="94.59" shape="1298.10,58.40 1392.69,58.40"/>
    </edge>
    <edge id="WM4" from="J9" to="J3" priority="-1">
        <lane id="WM4_0" index="0" speed="13.89" length="390.41" shape="1438.89,52.00 1829.30,52.00"/>
        <lane id="WM4_1" index="1" speed="13.89" length="390.41" shape="1438.89,55.20 1829.30,55.20"/>
        <lane id="WM4_2" index="2" speed="13.89" length="390.41" shape="1438.89,58.40 1829.30,58.40"/>
    </edge>
    <edge id="WM5" from="J3" to="J4" priority="-1">
        <lane id="WM5_0" index="0" speed="13.89" length="74.26" shape="1890.74,55.20 1965.00,55.20"/>
        <lane id="WM5_1" index="1" speed="13.89" length="74.26" shape="1890.74,58.40 1965.00,58.40"/>
    </edge>
    <edge id="WO1" from="J1" to="J10" priority="-1">
        <lane id="WO1_0" index="0" speed="13.89" length="64.37" shape="356.09,51.26 419.25,38.81"/>
    </edge>
    <edge id="WO2" from="J3" to="J18" priority="-1">
        <lane id="WO2_0" index="0" speed="13.89" length="66.63" shape="1890.68,51.56 1955.10,34.55"/>
    </edge>

    <junction id="J0" type="dead_end" x="0.00" y="0.00" incLanes="EM5_0 EM5_1" intLanes="" shape="0.00,0.00 -1.18,6.29 0.00,0.00"/>
    <junction id="J1" type="priority" x="320.00" y="60.00" incLanes="EI3_0 EM4_0 EM4_1 WM1_0 WM1_1" intLanes=":J1_0_0 :J1_1_0 :J1_2_0 :J1_3_0 :J1_3_1 :J1_9_0 :J1_6_0 :J1_7_0 :J1_7_1" shape="338.75,70.85 339.93,67.87 340.79,66.94 343.58,66.68 347.39,66.51 351.83,66.42 356.48,66.40 356.48,53.60 356.40,52.83 355.78,49.69 349.16,51.29 344.24,52.90 340.16,54.25 336.08,55.10 331.15,55.21 324.52,54.34 322.16,66.92 325.75,67.54 328.42,67.94 330.62,68.30 332.79,68.78 335.35,69.58">
        <request index="0" response="000011000" foes="000011000" cont="0"/>
        <request index="1" response="111111000" foes="111111000" cont="0"/>
        <request index="2" response="110111000" foes="110111000" cont="0"/>
        <request index="3" response="000000000" foes="000000111" cont="0"/>
        <request index="4" response="000000000" foes="000000111" cont="0"/>
        <request index="5" response="111000000" foes="111000110" cont="1"/>
        <request index="6" response="000000000" foes="000100010" cont="0"/>
        <request index="7" response="000000000" foes="000100110" cont="0"/>
        <request index="8" response="000000000" foes="000100110" cont="0"/>
    </junction>
    <junction id="J10" type="dead_end" x="419.56" y="40.38" incLanes="WO1_0" intLanes="" shape="418.94,37.24 419.56,40.38"/>
    <junction id="J12" type="dead_end" x="1230.82" y="34.79" incLanes="" intLanes="" shape="1230.82,34.79 1231.74,31.72"/>
    <junction id="J13" type="dead_end" x="1367.33" y="74.66" incLanes="EO2_0 EO2_1" intLanes="" shape="1369.21,80.78 1367.33,74.66"/>
    <junction id="J14" type="dead_end" x="1465.83" y="81.79" incLanes="" intLanes="" shape="1465.83,81.79 1464.57,84.73"/>
    <junction id="J15" type="dead_end" x="1955.73" y="89.02" incLanes="" intLanes="" shape="1955.73,89.02 1953.78,95.12"/>
    <junction id="J16" type="dead_end" x="1789.94" y="81.07" incLanes="EO1_0" intLanes="" shape="1790.80,84.15 1789.94,81.07"/>
    <junction id="J18" type="dead_end" x="1955.51" y="36.10" incLanes="WO2_0" intLanes="" shape="1954.69,33.01 1955.51,36.10"/>
    <junction id="J2" type="priority" x="1315.00" y="60.00" incLanes="EM3_0 EM3_1 WI1_0 WM2_0 WM2_1" intLanes=":J2_0_0 :J2_0_1 :J2_2_0 :J2_3_0 :J2_4_0 :J2_4_1" shape="1298.10,66.40 1298.10,50.40 1295.15,50.35 1294.12,50.25 1293.10,50.05 1291.89,49.73 1290.27,49.25 1289.35,52.32 1289.63,53.60 1289.63,66.40">
        <request index="0" response="000000" foes="001000" cont="0"/>
        <request index="1" response="000000" foes="001000" cont="0"/>
        <request index="2" response="000000" foes="000000" cont="0"/>
        <request index="3" response="110011" foes="110011" cont="0"/>
        <request index="4" response="000000" foes="001000" cont="0"/>
        <request index="5" response="000000" foes="001000" cont="0"/>
    </junction>
    <junction id="J3" type="priority" x="1865.00" y="60.00" incLanes="EI1_0 EI1_1 EM1_0 WM4_0 WM4_1 WM4_2" intLanes=":J3_0_0 :J3_1_0 :J3_1_1 :J3_3_0 :J3_4_0 :J3_5_0 :J3_6_0 :J3_6_1 :J3_13_0 :J3_9_0 :J3_10_0 :J3_10_1 :J3_14_0" shape="1874.48,69.75 1876.43,63.66 1877.39,63.40 1879.29,63.31 1882.16,63.25 1885.97,63.21 1890.74,63.20 1890.74,53.60 1891.09,53.11 1890.27,50.02 1879.10,52.26 1869.28,52.95 1860.10,52.60 1850.85,51.72 1840.82,50.81 1829.30,50.40 1829.30,69.60 1829.36,70.01 1830.22,73.09 1839.45,70.29 1846.50,68.05 1852.44,66.63 1858.36,66.28 1865.35,67.24">
        <request index="0"  response="1000000100000" foes="1000000100000" cont="0"/>
        <request index="1"  response="1000011100000" foes="1000011100000" cont="0"/>
        <request index="2"  response="1000011100000" foes="1000011100000" cont="0"/>
        <request index="3"  response="0111111100000" foes="0111111100000" cont="0"/>
        <request index="4"  response="0110111100000" foes="0110111100000" cont="0"/>
        <request index="5"  response="0000000000000" foes="1000000011111" cont="0"/>
        <request index="6"  response="0000000000000" foes="1000000011110" cont="0"/>
        <request index="7"  response="0000000000000" foes="1000000011110" cont="0"/>
        <request index="8"  response="0111000000000" foes="0111000011000" cont="1"/>
        <request index="9"  response="0000000000000" foes="0000100001000" cont="0"/>
        <request index="10" response="0000000000000" foes="0000100011000" cont="0"/>
        <request index="11" response="0000000000000" foes="0000100011000" cont="0"/>
        <request index="12" response="0000011100000" foes="0000011100111" cont="1"/>
    </junction>
    <junction id="J4" type="dead_end" x="1965.00" y="60.00" incLanes="WM5_0 WM5_1" intLanes="" shape="1965.00,60.00 1965.00,53.60 1965.00,60.00"/>
    <junction id="J8" type="dead_end" x="395.74" y="89.91" incLanes="" intLanes="" shape="395.74,89.91 394.56,92.89"/>
    <junction id="J9" type="priority" x="1415.00" y="60.00" incLanes="EI2_0 EM2_0 EM2_1 EM2_2 WM3_0 WM3_1 WM3_2" intLanes=":J9_0_0 :J9_1_0 :J9_2_0 :J9_2_1 :J9_4_0 :J9_5_0 :J9_5_1 :J9_7_0 :J9_7_1 :J9_7_2 :J9_11_0" shape="1437.51,73.13 1438.77,70.19 1438.89,69.60 1438.89,50.40 1392.69,50.40 1392.69,66.40 1392.76,66.84 1394.64,72.96 1403.56,70.20 1410.48,68.33 1416.37,67.51 1422.19,67.93 1428.92,69.75">
        <request index="0"  response="00000000000" foes="00000000000" cont="0"/>
        <request index="1"  response="10001110000" foes="10001110000" cont="0"/>
        <request index="2"  response="01111110000" foes="01111110000" cont="0"/>
        <request index="3"  response="01111110000" foes="01111110000" cont="0"/>
        <request index="4"  response="00000000000" foes="10000001110" cont="0"/>
        <request index="5"  response="00000000000" foes="10000001110" cont="0"/>
        <request index="6"  response="00000000000" foes="10000001110" cont="0"/>
        <request index="7"  response="00000000000" foes="00000001100" cont="0"/>
        <request index="8"  response="00000000000" foes="00000001100" cont="0"/>
        <request index="9"  response="00000000000" foes="00000001100" cont="0"/>
        <request index="10" response="00001110000" foes="00001110010" cont="1"/>
    </junction>

    <junction id=":J1_9_0" type="internal" x="354.86" y="60.88" incLanes=":J1_5_0 WM1_0 WM1_1" intLanes=":J1_1_0 :J1_2_0 :J1_6_0 :J1_7_0 :J1_7_1"/>
    <junction id=":J3_13_0" type="internal" x="1888.78" y="60.74" incLanes=":J3_8_0 WM4_0 WM4_1" intLanes=":J3_3_0 :J3_4_0 :J3_9_0 :J3_10_0 :J3_10_1"/>
    <junction id=":J3_14_0" type="internal" x="1831.11" y="59.17" incLanes=":J3_12_0 EM1_0" intLanes=":J3_0_0 :J3_1_0 :J3_1_1 :J3_5_0 :J3_6_0 :J3_6_1"/>
    <junction id=":J9_11_0" type="internal" x="1394.53" y="59.17" incLanes=":J9_10_0 EM2_0 EM2_1 EM2_2" intLanes=":J9_0_0 :J9_1_0 :J9_4_0 :J9_5_0 :J9_5_1"/>

    <connection from="EI1" to="EO1" fromLane="0" toLane="0" via=":J3_0_0" dir="R" state="m"/>
    <connection from="EI1" to="EM2" fromLane="0" toLane="0" via=":J3_1_0" dir="s" state="m"/>
    <connection from="EI1" to="EM2" fromLane="1" toLane="1" via=":J3_1_1" dir="s" state="m"/>
    <connection from="EI1" to="WO2" fromLane="1" toLane="0" via=":J3_3_0" dir="l" state="m"/>
    <connection from="EI1" to="WM5" fromLane="1" toLane="1" via=":J3_4_0" dir="l" state="m"/>
    <connection from="EI2" to="EO2" fromLane="0" toLane="0" via=":J9_0_0" dir="R" state="M"/>
    <connection from="EI2" to="EM3" fromLane="0" toLane="0" via=":J9_1_0" dir="s" state="m"/>
    <connection from="EI2" to="WM4" fromLane="0" toLane="1" via=":J9_2_0" dir="l" state="m"/>
    <connection from="EI2" to="WM4" fromLane="0" toLane="2" via=":J9_2_1" dir="l" state="m"/>
    <connection from="EI3" to="EM5" fromLane="0" toLane="0" via=":J1_0_0" dir="s" state="m"/>
    <connection from="EI3" to="WO1" fromLane="0" toLane="0" via=":J1_1_0" dir="l" state="m"/>
    <connection from="EI3" to="WM2" fromLane="0" toLane="1" via=":J1_2_0" dir="l" state="m"/>
    <connection from="EM1" to="EO1" fromLane="0" toLane="0" via=":J3_5_0" dir="R" state="M"/>
    <connection from="EM1" to="EM2" fromLane="0" toLane="1" via=":J3_6_0" dir="s" state="M"/>
    <connection from="EM1" to="EM2" fromLane="0" toLane="2" via=":J3_6_1" dir="s" state="M"/>
    <connection from="EM1" to="WO2" fromLane="0" toLane="0" via=":J3_8_0" dir="l" state="m"/>
    <connection from="EM2" to="EO2" fromLane="0" toLane="1" via=":J9_4_0" dir="R" state="M"/>
    <connection from="EM2" to="EM3" fromLane="1" toLane="0" via=":J9_5_0" dir="s" state="M"/>
    <connection from="EM2" to="EM3" fromLane="2" toLane="1" via=":J9_5_1" dir="s" state="M"/>
    <connection from="EM3" to="EM4" fromLane="0" toLane="0" via=":J2_0_0" dir="s" state="M"/>
    <connection from="EM3" to="EM4" fromLane="1" toLane="1" via=":J2_0_1" dir="s" state="M"/>
    <connection from="EM4" to="EM5" fromLane="0" toLane="0" via=":J1_3_0" dir="s" state="M"/>
    <connection from="EM4" to="EM5" fromLane="1" toLane="1" via=":J1_3_1" dir="s" state="M"/>
    <connection from="EM4" to="WO1" fromLane="1" toLane="0" via=":J1_5_0" dir="l" state="m"/>
    <connection from="WI1" to="WM3" fromLane="0" toLane="0" via=":J2_2_0" dir="s" state="M"/>
    <connection from="WI1" to="EM4" fromLane="0" toLane="1" via=":J2_3_0" dir="l" state="m"/>
    <connection from="WM1" to="WO1" fromLane="0" toLane="0" via=":J1_6_0" dir="R" state="M"/>
    <connection from="WM1" to="WM2" fromLane="0" toLane="0" via=":J1_7_0" dir="s" state="M"/>
    <connection from="WM1" to="WM2" fromLane="1" toLane="1" via=":J1_7_1" dir="s" state="M"/>
    <connection from="WM2" to="WM3" fromLane="0" toLane="1" via=":J2_4_0" dir="s" state="M"/>
    <connection from="WM2" to="WM3" fromLane="1" toLane="2" via=":J2_4_1" dir="s" state="M"/>
    <connection from="WM3" to="WM4" fromLane="0" toLane="0" via=":J9_7_0" dir="s" state="M"/>
    <connection from="WM3" to="WM4" fromLane="1" toLane="1" via=":J9_7_1" dir="s" state="M"/>
    <connection from="WM3" to="WM4" fromLane="2" toLane="2" via=":J9_7_2" dir="s" state="M"/>
    <connection from="WM3" to="EO2" fromLane="2" toLane="1" via=":J9_10_0" dir="l" state="m"/>
    <connection from="WM4" to="WO2" fromLane="0" toLane="0" via=":J3_9_0" dir="R" state="M"/>
    <connection from="WM4" to="WM5" fromLane="0" toLane="0" via=":J3_10_0" dir="s" state="M"/>
    <connection from="WM4" to="WM5" fromLane="1" toLane="1" via=":J3_10_1" dir="s" state="M"/>
    <connection from="WM4" to="EO1" fromLane="2" toLane="0" via=":J3_12_0" dir="l" state="m"/>

    <connection from=":J1_0" to="EM5" fromLane="0" toLane="0" dir="s" state="M"/>
    <connection from=":J1_1" to="WO1" fromLane="0" toLane="0" dir="l" state="M"/>
    <connection from=":J1_2" to="WM2" fromLane="0" toLane="1" dir="l" state="M"/>
    <connection from=":J1_3" to="EM5" fromLane="0" toLane="0" dir="s" state="M"/>
    <connection from=":J1_3" to="EM5" fromLane="1" toLane="1" dir="s" state="M"/>
    <connection from=":J1_5" to="WO1" fromLane="0" toLane="0" via=":J1_9_0" dir="l" state="m"/>
    <connection from=":J1_9" to="WO1" fromLane="0" toLane="0" dir="l" state="M"/>
    <connection from=":J1_6" to="WO1" fromLane="0" toLane="0" dir="R" state="M"/>
    <connection from=":J1_7" to="WM2" fromLane="0" toLane="0" dir="s" state="M"/>
    <connection from=":J1_7" to="WM2" fromLane="1" toLane="1" dir="s" state="M"/>
    <connection from=":J2_0" to="EM4" fromLane="0" toLane="0" dir="s" state="M"/>
    <connection from=":J2_0" to="EM4" fromLane="1" toLane="1" dir="s" state="M"/>
    <connection from=":J2_2" to="WM3" fromLane="0" toLane="0" dir="s" state="M"/>
    <connection from=":J2_3" to="EM4" fromLane="0" toLane="1" dir="l" state="M"/>
    <connection from=":J2_4" to="WM3" fromLane="0" toLane="1" dir="s" state="M"/>
    <connection from=":J2_4" to="WM3" fromLane="1" toLane="2" dir="s" state="M"/>
    <connection from=":J3_0" to="EO1" fromLane="0" toLane="0" dir="R" state="M"/>
    <connection from=":J3_1" to="EM2" fromLane="0" toLane="0" dir="s" state="M"/>
    <connection from=":J3_1" to="EM2" fromLane="1" toLane="1" dir="s" state="M"/>
    <connection from=":J3_3" to="WO2" fromLane="0" toLane="0" dir="l" state="M"/>
    <connection from=":J3_4" to="WM5" fromLane="0" toLane="1" dir="l" state="M"/>
    <connection from=":J3_5" to="EO1" fromLane="0" toLane="0" dir="R" state="M"/>
    <connection from=":J3_6" to="EM2" fromLane="0" toLane="1" dir="s" state="M"/>
    <connection from=":J3_6" to="EM2" fromLane="1" toLane="2" dir="s" state="M"/>
    <connection from=":J3_8" to="WO2" fromLane="0" toLane="0" via=":J3_13_0" dir="l" state="m"/>
    <connection from=":J3_13" to="WO2" fromLane="0" toLane="0" dir="l" state="M"/>
    <connection from=":J3_9" to="WO2" fromLane="0" toLane="0" dir="R" state="M"/>
    <connection from=":J3_10" to="WM5" fromLane="0" toLane="0" dir="s" state="M"/>
    <connection from=":J3_10" to="WM5" fromLane="1" toLane="1" dir="s" state="M"/>
    <connection from=":J3_12" to="EO1" fromLane="0" toLane="0" via=":J3_14_0" dir="l" state="m"/>
    <connection from=":J3_14" to="EO1" fromLane="0" toLane="0" dir="l" state="M"/>
    <connection from=":J9_0" to="EO2" fromLane="0" toLane="0" dir="R" state="M"/>
    <connection from=":J9_1" to="EM3" fromLane="0" toLane="0" dir="s" state="M"/>
    <connection from=":J9_2" to="WM4" fromLane="0" toLane="1" dir="l" state="M"/>
    <connection from=":J9_2" to="WM4" fromLane="1" toLane="2" dir="l" state="M"/>
    <connection from=":J9_4" to="EO2" fromLane="0" toLane="1" dir="R" state="M"/>
    <connection from=":J9_5" to="EM3" fromLane="0" toLane="0" dir="s" state="M"/>
    <connection from=":J9_5" to="EM3" fromLane="1" toLane="1" dir="s" state="M"/>
    <connection from=":J9_7" to="WM4" fromLane="0" toLane="0" dir="s" state="M"/>
    <connection from=":J9_7" to="WM4" fromLane="1" toLane="1" dir="s" state="M"/>
    <connection from=":J9_7" to="WM4" fromLane="2" toLane="2" dir="s" state="M"/>
    <connection from=":J9_10" to="EO2" fromLane="0" toLane="1" via=":J9_11_0" dir="l" state="m"/>
    <connection from=":J9_11" to="EO2" fromLane="0" toLane="1" dir="l" state="M"/>

</net>
