<?xml version="1.0" encoding="UTF-8"?>

<!-- generated on 2025-03-18 16:23:54 by Eclipse SUMO netedit Version 1.13.0
<configuration xmlns:xsi="http://www.w3.org/2001/XMLSchema-instance" xsi:noNamespaceSchemaLocation="http://sumo.dlr.de/xsd/netconvertConfiguration.xsd">

    <input>
        <sumo-net-file value="D:\OneDrive%20-%20tongji.edu.cn\桌面\搞新的\Code\Chapter5\LCSG-downstream\MainFile\MAGIC.net.xml"/>
    </input>

    <output>
        <output-file value="D:\OneDrive%20-%20tongji.edu.cn\桌面\搞新的\Code\Chapter5\LCSG-downstream\MainFile\MAGIC.net.xml"/>
    </output>

    <processing>
        <geometry.min-radius.fix.railways value="false"/>
        <geometry.max-grade.fix value="false"/>
        <offset.disable-normalization value="true"/>
        <lefthand value="false"/>
    </processing>

    <junctions>
        <no-turnarounds value="true"/>
        <junctions.corner-detail value="5"/>
        <junctions.limit-turn-speed value="5.5"/>
        <rectangular-lane-cut value="false"/>
    </junctions>

    <pedestrian>
        <walkingareas value="false"/>
    </pedestrian>

    <report>
        <aggregate-warnings value="5"/>
    </report>

</configuration>
-->

<net version="1.9" junctionCornerDetail="5" limitTurnSpeed="5.50" xmlns:xsi="http://www.w3.org/2001/XMLSchema-instance" xsi:noNamespaceSchemaLocation="http://sumo.dlr.de/xsd/net_file.xsd">

    <location netOffset="0.00,0.00" convBoundary="0.00,0.00,1965.00,60.00" origBoundary="-10000000000.00,-10000000000.00,10000000000.00,10000000000.00" projParameter="!"/>

    <edge id=":J1_0" function="internal">
        <lane id=":J1_0_0" index="0" speed="16.66" length="32.38" shape="324.23,55.91 332.66,56.10 342.00,54.64 350.42,52.65 356.09,51.26"/>
    </edge>
    <edge id=":J1_1" function="internal">
        <lane id=":J1_1_0" index="0" speed="22.22" length="32.62" shape="324.23,55.91 332.01,56.58 340.29,56.25 348.60,55.57 356.48,55.20"/>
        <lane id=":J1_1_1" index="1" speed="22.22" length="32.62" shape="323.64,59.05 331.51,59.73 339.99,59.42 348.51,58.76 356.48,58.40"/>
    </edge>
    <edge id=":J2_0" function="internal">
        <lane id=":J2_0_0" index="0" speed="16.66" length="3.45" shape="1292.20,51.50 1293.19,51.79 1293.87,51.94 1294.57,51.99 1295.60,52.00"/>
    </edge>
    <edge id=":J2_1" function="internal">
        <lane id=":J2_1_0" index="0" speed="22.22" length="3.47" shape="1292.13,55.20 1295.60,55.20"/>
        <lane id=":J2_1_1" index="1" speed="22.22" length="3.47" shape="1292.13,58.40 1295.60,58.40"/>
    </edge>
    <edge id=":J3_0" function="internal">
        <lane id=":J3_0_0" index="0" speed="16.66" length="3.40" shape="1887.32,52.00 1888.33,51.99 1889.02,51.94 1889.70,51.81 1890.68,51.56"/>
    </edge>
    <edge id=":J3_1" function="internal">
        <lane id=":J3_1_0" index="0" speed="22.22" length="3.42" shape="1887.32,55.20 1890.74,55.20"/>
        <lane id=":J3_1_1" index="1" speed="22.22" length="3.42" shape="1887.32,58.40 1890.74,58.40"/>
    </edge>
    <edge id=":J5_0" function="internal">
        <lane id=":J5_0_0" index="0" speed="22.22" length="0.10" shape="863.47,55.20 863.47,55.20"/>
        <lane id=":J5_0_1" index="1" speed="22.22" length="0.10" shape="863.47,58.40 863.47,58.40"/>
    </edge>
    <edge id=":J6_0" function="internal">
        <lane id=":J6_0_0" index="0" speed="22.22" length="0.10" shape="565.00,55.20 565.00,55.20"/>
        <lane id=":J6_0_1" index="1" disallow="all" speed="22.22" length="0.10" shape="565.00,58.40 565.00,58.40"/>
    </edge>
    <edge id=":J7_0" function="internal">
        <lane id=":J7_0_0" index="0" speed="22.22" length="1.07" shape="765.00,55.20 765.00,55.20"/>
        <lane id=":J7_0_1" index="1" speed="22.22" length="1.07" shape="765.00,55.20 765.00,58.40"/>
        <lane id=":J7_0_2" index="2" disallow="all" speed="22.22" length="1.07" shape="765.00,58.40 765.00,58.40"/>
    </edge>
    <edge id=":J8_0" function="internal">
        <lane id=":J8_0_0" index="0" speed="22.22" length="0.10" shape="1565.00,52.00 1565.00,52.00"/>
        <lane id=":J8_0_1" index="1" speed="22.22" length="0.10" shape="1565.00,55.20 1565.00,55.20"/>
        <lane id=":J8_0_2" index="2" disallow="all" speed="22.22" length="0.10" shape="1565.00,58.40 1565.00,58.40"/>
    </edge>
    <edge id=":J9_0" function="internal">
        <lane id=":J9_0_0" index="0" speed="22.22" length="0.10" shape="1765.00,52.00 1765.00,52.00"/>
        <lane id=":J9_0_1" index="1" speed="22.22" length="0.10" shape="1765.00,55.20 1765.00,55.20"/>
        <lane id=":J9_0_2" index="2" disallow="all" speed="22.22" length="0.10" shape="1765.00,58.40 1765.00,58.40"/>
    </edge>

    <edge id="I1" from="J12" to="J2" priority="-1" length="100.00">
        <lane id="I1_0" index="0" speed="11.11" length="100.00" shape="1231.28,33.26 1292.20,51.50"/>
    </edge>
    <edge id="M1" from="J0" to="J1" priority="-1" length="425.00">
        <lane id="M1_0" index="0" speed="22.22" length="425.00" shape="0.88,-4.72 324.23,55.91"/>
        <lane id="M1_1" index="1" speed="22.22" length="425.00" shape="0.29,-1.57 323.64,59.05"/>
    </edge>
    <edge id="M2" from="J1" to="J6" priority="-1" length="245.00">
        <lane id="M2_0" index="0" speed="22.22" length="245.00" shape="356.48,55.20 565.00,55.20"/>
        <lane id="M2_1" index="1" speed="22.22" length="245.00" shape="356.48,58.40 565.00,58.40"/>
    </edge>
    <edge id="M3" from="J6" to="J7" priority="-1" length="200.00">
        <lane id="M3_0" index="0" speed="22.22" length="200.00" shape="565.00,55.20 765.00,55.20"/>
        <lane id="M3_1" index="1" disallow="all" speed="22.22" length="200.00" shape="565.00,58.40 765.00,58.40"/>
    </edge>
    <edge id="M4" from="J7" to="J5" priority="-1" length="55.00">
        <lane id="M4_0" index="0" speed="22.22" length="55.00" shape="765.00,55.20 863.47,55.20"/>
        <lane id="M4_1" index="1" speed="22.22" length="55.00" shape="765.00,58.40 863.47,58.40"/>
    </edge>
    <edge id="M5" from="J5" to="J2" priority="-1" length="495.00">
        <lane id="M5_0" index="0" speed="22.22" length="495.00" shape="863.47,55.20 1292.13,55.20"/>
        <lane id="M5_1" index="1" speed="22.22" length="495.00" shape="863.47,58.40 1292.13,58.40"/>
    </edge>
    <edge id="M6" from="J2" to="J8" priority="-1" length="250.00">
        <lane id="M6_0" index="0" speed="22.22" length="250.00" acceleration="1" shape="1295.60,52.00 1565.00,52.00"/>
        <lane id="M6_1" index="1" speed="22.22" length="250.00" shape="1295.60,55.20 1565.00,55.20"/>
        <lane id="M6_2" index="2" speed="22.22" length="250.00" shape="1295.60,58.40 1565.00,58.40"/>
    </edge>
    <edge id="M7" from="J8" to="J9" priority="-1">
        <lane id="M7_0" index="0" speed="22.22" length="200.00" shape="1565.00,52.00 1765.00,52.00"/>
        <lane id="M7_1" index="1" speed="22.22" length="200.00" shape="1565.00,55.20 1765.00,55.20"/>
        <lane id="M7_2" index="2" disallow="all" speed="22.22" length="200.00" shape="1565.00,58.40 1765.00,58.40"/>
    </edge>
    <edge id="M8" from="J9" to="J3" priority="-1" length="100.00">
        <lane id="M8_0" index="0" speed="22.22" length="100.00" shape="1765.00,52.00 1887.32,52.00"/>
        <lane id="M8_1" index="1" speed="22.22" length="100.00" shape="1765.00,55.20 1887.32,55.20"/>
        <lane id="M8_2" index="2" speed="22.22" length="100.00" shape="1765.00,58.40 1887.32,58.40"/>
    </edge>
    <edge id="M9" from="J3" to="J4" priority="-1" length="100.00">
        <lane id="M9_0" index="0" speed="22.22" length="100.00" shape="1890.74,55.20 1965.00,55.20"/>
        <lane id="M9_1" index="1" speed="22.22" length="100.00" shape="1890.74,58.40 1965.00,58.40"/>
    </edge>
    <edge id="O1" from="J1" to="J10" priority="-1" length="100.00">
        <lane id="O1_0" index="0" speed="11.11" length="100.00" shape="356.09,51.26 419.25,38.81"/>
    </edge>
    <edge id="O2" from="J3" to="J18" priority="-1" length="100.00">
        <lane id="O2_0" index="0" speed="11.11" length="100.00" shape="1890.68,51.56 1955.10,34.55"/>
    </edge>

    <junction id="J0" type="dead_end" x="0.00" y="0.00" incLanes="" intLanes="" shape="0.00,0.00 1.18,-6.29"/>
    <junction id="J1" type="priority" x="320.00" y="60.00" incLanes="M1_0 M1_1" intLanes=":J1_0_0 :J1_1_0 :J1_1_1" shape="356.48,60.00 356.48,53.60 356.40,52.83 355.78,49.69 349.16,51.29 344.24,52.90 340.16,54.25 336.08,55.10 331.15,55.21 324.52,54.34 323.34,60.63 330.30,61.64 335.49,61.82 339.80,61.46 344.14,60.84 349.40,60.26" customShape="1">
        <request index="0" response="000" foes="000" cont="0"/>
        <request index="1" response="000" foes="000" cont="0"/>
        <request index="2" response="000" foes="000" cont="0"/>
    </junction>
    <junction id="J10" type="dead_end" x="419.56" y="40.38" incLanes="O1_0" intLanes="" shape="418.94,37.24 419.56,40.38"/>
    <junction id="J12" type="dead_end" x="1230.82" y="34.79" incLanes="" intLanes="" shape="1230.82,34.79 1231.74,31.72"/>
    <junction id="J18" type="dead_end" x="1955.51" y="36.10" incLanes="O2_0" intLanes="" shape="1954.69,33.01 1955.51,36.10"/>
    <junction id="J2" type="priority" x="1315.00" y="60.00" incLanes="I1_0 M5_0 M5_1" intLanes=":J2_0_0 :J2_1_0 :J2_1_1" shape="1295.60,60.00 1295.60,50.40 1294.49,50.38 1294.11,50.34 1293.72,50.27 1293.27,50.15 1292.66,49.97 1291.74,53.04 1292.13,53.60 1292.13,60.00">
        <request index="0" response="000" foes="000" cont="0"/>
        <request index="1" response="000" foes="000" cont="0"/>
        <request index="2" response="000" foes="000" cont="0"/>
    </junction>
    <junction id="J3" type="priority" x="1865.00" y="60.00" incLanes="M8_0 M8_1 M8_2" intLanes=":J3_0_0 :J3_1_0 :J3_1_1" shape="1890.74,60.00 1890.74,53.60 1891.09,53.11 1890.27,50.02 1889.20,50.29 1888.82,50.35 1888.43,50.39 1887.96,50.40 1887.32,50.40 1887.32,60.00">
        <request index="0" response="000" foes="000" cont="0"/>
        <request index="1" response="000" foes="000" cont="0"/>
        <request index="2" response="000" foes="000" cont="0"/>
    </junction>
    <junction id="J4" type="dead_end" x="1965.00" y="60.00" incLanes="M9_0 M9_1" intLanes="" shape="1965.00,53.60 1965.00,60.00"/>
    <junction id="J5" type="priority" x="863.47" y="60.00" incLanes="M4_0 M4_1" intLanes=":J5_0_0 :J5_0_1" shape="863.47,60.00 863.47,53.60 863.47,60.00">
        <request index="0" response="00" foes="00" cont="0"/>
        <request index="1" response="00" foes="00" cont="0"/>
    </junction>
    <junction id="J6" type="priority" x="565.00" y="60.00" incLanes="M2_0 M2_1" intLanes=":J6_0_0 :J6_0_1" shape="565.00,56.80 565.00,53.60 565.00,60.00">
        <request index="0" response="00" foes="00" cont="0"/>
        <request index="1" response="00" foes="00" cont="0"/>
    </junction>
    <junction id="J7" type="priority" x="765.00" y="60.00" incLanes="M3_0 M3_1" intLanes=":J7_0_0 :J7_0_1 :J7_0_2" shape="765.00,60.00 765.00,53.60 765.00,56.80">
        <request index="0" response="000" foes="000" cont="0"/>
        <request index="1" response="100" foes="100" cont="0"/>
        <request index="2" response="000" foes="010" cont="0"/>
    </junction>
    <junction id="J8" type="priority" x="1565.00" y="60.00" incLanes="M6_0 M6_1 M6_2" intLanes=":J8_0_0 :J8_0_1 :J8_0_2" shape="1565.00,56.80 1565.00,50.40 1565.00,60.00">
        <request index="0" response="000" foes="000" cont="0"/>
        <request index="1" response="000" foes="000" cont="0"/>
        <request index="2" response="000" foes="000" cont="0"/>
    </junction>
    <junction id="J9" type="priority" x="1765.00" y="60.00" incLanes="M7_0 M7_1 M7_2" intLanes=":J9_0_0 :J9_0_1 :J9_0_2" shape="1765.00,60.00 1765.00,50.40 1765.00,56.80">
        <request index="0" response="000" foes="000" cont="0"/>
        <request index="1" response="000" foes="000" cont="0"/>
        <request index="2" response="000" foes="000" cont="0"/>
    </junction>

    <connection from="I1" to="M6" fromLane="0" toLane="0" via=":J2_0_0" dir="s" state="M"/>
    <connection from="M1" to="O1" fromLane="0" toLane="0" via=":J1_0_0" dir="R" state="M"/>
    <connection from="M1" to="M2" fromLane="0" toLane="0" via=":J1_1_0" dir="s" state="M"/>
    <connection from="M1" to="M2" fromLane="1" toLane="1" via=":J1_1_1" dir="s" state="M"/>
    <connection from="M2" to="M3" fromLane="0" toLane="0" via=":J6_0_0" dir="s" state="M"/>
    <connection from="M2" to="M3" fromLane="1" toLane="1" via=":J6_0_1" dir="s" state="M"/>
    <connection from="M3" to="M4" fromLane="0" toLane="0" via=":J7_0_0" dir="s" state="M"/>
    <connection from="M3" to="M4" fromLane="0" toLane="1" via=":J7_0_1" dir="s" state="m"/>
    <connection from="M3" to="M4" fromLane="1" toLane="1" via=":J7_0_2" dir="s" state="M"/>
    <connection from="M4" to="M5" fromLane="0" toLane="0" via=":J5_0_0" dir="s" state="M"/>
    <connection from="M4" to="M5" fromLane="1" toLane="1" via=":J5_0_1" dir="s" state="M"/>
    <connection from="M5" to="M6" fromLane="0" toLane="1" via=":J2_1_0" dir="s" state="M"/>
    <connection from="M5" to="M6" fromLane="1" toLane="2" via=":J2_1_1" dir="s" state="M"/>
    <connection from="M6" to="M7" fromLane="0" toLane="0" via=":J8_0_0" dir="s" state="M"/>
    <connection from="M6" to="M7" fromLane="1" toLane="1" via=":J8_0_1" dir="s" state="M"/>
    <connection from="M6" to="M7" fromLane="2" toLane="2" via=":J8_0_2" dir="s" state="M"/>
    <connection from="M7" to="M8" fromLane="0" toLane="0" via=":J9_0_0" dir="s" state="M"/>
    <connection from="M7" to="M8" fromLane="1" toLane="1" via=":J9_0_1" dir="s" state="M"/>
    <connection from="M7" to="M8" fromLane="2" toLane="2" via=":J9_0_2" dir="s" state="M"/>
    <connection from="M8" to="O2" fromLane="0" toLane="0" via=":J3_0_0" dir="R" state="M"/>
    <connection from="M8" to="M9" fromLane="1" toLane="0" via=":J3_1_0" dir="s" state="M"/>
    <connection from="M8" to="M9" fromLane="2" toLane="1" via=":J3_1_1" dir="s" state="M"/>

    <connection from=":J1_0" to="O1" fromLane="0" toLane="0" dir="R" state="M"/>
    <connection from=":J1_1" to="M2" fromLane="0" toLane="0" dir="s" state="M"/>
    <connection from=":J1_1" to="M2" fromLane="1" toLane="1" dir="s" state="M"/>
    <connection from=":J2_0" to="M6" fromLane="0" toLane="0" dir="s" state="M"/>
    <connection from=":J2_1" to="M6" fromLane="0" toLane="1" dir="s" state="M"/>
    <connection from=":J2_1" to="M6" fromLane="1" toLane="2" dir="s" state="M"/>
    <connection from=":J3_0" to="O2" fromLane="0" toLane="0" dir="R" state="M"/>
    <connection from=":J3_1" to="M9" fromLane="0" toLane="0" dir="s" state="M"/>
    <connection from=":J3_1" to="M9" fromLane="1" toLane="1" dir="s" state="M"/>
    <connection from=":J5_0" to="M5" fromLane="0" toLane="0" dir="s" state="M"/>
    <connection from=":J5_0" to="M5" fromLane="1" toLane="1" dir="s" state="M"/>
    <connection from=":J6_0" to="M3" fromLane="0" toLane="0" dir="s" state="M"/>
    <connection from=":J6_0" to="M3" fromLane="1" toLane="1" dir="s" state="M"/>
    <connection from=":J7_0" to="M4" fromLane="0" toLane="0" dir="s" state="M"/>
    <connection from=":J7_0" to="M4" fromLane="1" toLane="1" dir="s" state="M"/>
    <connection from=":J7_0" to="M4" fromLane="2" toLane="1" dir="s" state="M"/>
    <connection from=":J8_0" to="M7" fromLane="0" toLane="0" dir="s" state="M"/>
    <connection from=":J8_0" to="M7" fromLane="1" toLane="1" dir="s" state="M"/>
    <connection from=":J8_0" to="M7" fromLane="2" toLane="2" dir="s" state="M"/>
    <connection from=":J9_0" to="M8" fromLane="0" toLane="0" dir="s" state="M"/>
    <connection from=":J9_0" to="M8" fromLane="1" toLane="1" dir="s" state="M"/>
    <connection from=":J9_0" to="M8" fromLane="2" toLane="2" dir="s" state="M"/>

</net>
