<?xml version="1.0" encoding="UTF-8"?>

<!-- generated on 2025-03-04 21:25:17 by Eclipse SUMO netedit Version 1.13.0
<configuration xmlns:xsi="http://www.w3.org/2001/XMLSchema-instance" xsi:noNamespaceSchemaLocation="http://sumo.dlr.de/xsd/netconvertConfiguration.xsd">

    <input>
        <sumo-net-file value="D:\OneDrive%20-%20tongji.edu.cn\桌面\搞新的\Code\Chapter5\LCSG-magicData\MainFile\MAGIC.net.xml"/>
    </input>

    <output>
        <output-file value="D:\OneDrive%20-%20tongji.edu.cn\桌面\搞新的\Code\Chapter5\LCSG-magicData\MainFile\MAGIC.net.xml"/>
    </output>

    <processing>
        <geometry.min-radius.fix.railways value="false"/>
        <geometry.max-grade.fix value="false"/>
        <offset.disable-normalization value="true"/>
        <lefthand value="false"/>
    </processing>

    <junctions>
        <no-turnarounds value="true"/>
        <junctions.corner-detail value="5"/>
        <junctions.limit-turn-speed value="5.5"/>
        <rectangular-lane-cut value="false"/>
    </junctions>

    <pedestrian>
        <walkingareas value="false"/>
    </pedestrian>

    <report>
        <aggregate-warnings value="5"/>
    </report>

</configuration>
-->

<net version="1.9" junctionCornerDetail="5" limitTurnSpeed="5.50" xmlns:xsi="http://www.w3.org/2001/XMLSchema-instance" xsi:noNamespaceSchemaLocation="http://sumo.dlr.de/xsd/net_file.xsd">

    <location netOffset="0.00,0.00" convBoundary="0.00,0.00,1965.00,89.91" origBoundary="-10000000000.00,-10000000000.00,10000000000.00,10000000000.00" projParameter="!"/>

    <edge id=":J1_0" function="internal">
        <lane id=":J1_0_0" index="0" speed="16.66" length="17.58" shape="339.34,69.36 335.86,68.67 332.08,68.84 327.57,69.05 321.87,68.49"/>
    </edge>
    <edge id=":J1_1" function="internal">
        <lane id=":J1_1_0" index="0" speed="22.22" length="33.85" shape="356.48,64.80 349.02,65.27 341.24,66.11 332.58,66.43 322.46,65.34"/>
        <lane id=":J1_1_1" index="1" speed="22.22" length="33.85" shape="356.48,61.60 349.11,62.08 341.54,62.94 333.08,63.27 323.05,62.20"/>
    </edge>
    <edge id=":J1_3" function="internal">
        <lane id=":J1_3_0" index="0" speed="16.66" length="32.38" shape="324.22,55.91 332.66,56.10 342.00,54.64 350.42,52.65 356.09,51.26"/>
    </edge>
    <edge id=":J1_4" function="internal">
        <lane id=":J1_4_0" index="0" speed="22.22" length="32.62" shape="324.22,55.91 332.00,56.58 340.29,56.25 348.60,55.57 356.48,55.20"/>
        <lane id=":J1_4_1" index="1" speed="22.22" length="32.62" shape="323.63,59.05 331.51,59.73 339.99,59.42 348.51,58.76 356.48,58.40"/>
    </edge>
    <edge id=":J2_0" function="internal">
        <lane id=":J2_0_0" index="0" speed="22.22" length="8.47" shape="1298.10,64.80 1289.63,64.80"/>
        <lane id=":J2_0_1" index="1" speed="22.22" length="8.47" shape="1298.10,61.60 1289.63,61.60"/>
    </edge>
    <edge id=":J2_2" function="internal">
        <lane id=":J2_2_0" index="0" speed="16.66" length="8.43" shape="1289.81,50.79 1292.21,51.48 1293.89,51.84 1295.60,51.98 1298.10,52.00"/>
    </edge>
    <edge id=":J2_3" function="internal">
        <lane id=":J2_3_0" index="0" speed="22.22" length="8.47" shape="1289.63,55.20 1298.10,55.20"/>
        <lane id=":J2_3_1" index="1" speed="22.22" length="8.47" shape="1289.63,58.40 1298.10,58.40"/>
    </edge>
    <edge id=":J3_0" function="internal">
        <lane id=":J3_0_0" index="0" speed="11.11" length="65.39" shape="1894.98,74.63 1881.45,72.67 1860.62,71.44 1840.67,71.03 1829.79,71.55"/>
    </edge>
    <edge id=":J3_1" function="internal">
        <lane id=":J3_1_0" index="0" speed="16.66" length="66.83" shape="1895.96,71.58 1883.63,69.74 1864.68,68.65 1844.70,68.13 1829.30,68.00"/>
    </edge>
    <edge id=":J3_2" function="internal">
        <lane id=":J3_2_0" index="0" speed="22.22" length="67.21" shape="1896.51,68.00 1829.30,68.00"/>
        <lane id=":J3_2_1" index="1" speed="22.22" length="67.21" shape="1896.51,64.80 1829.30,64.80"/>
        <lane id=":J3_2_2" index="2" speed="22.22" length="67.21" shape="1896.51,61.60 1829.30,61.60"/>
    </edge>
    <edge id=":J3_5" function="internal">
        <lane id=":J3_5_0" index="0" speed="16.66" length="61.40" shape="1829.30,52.00 1844.54,52.11 1863.80,52.26 1881.16,52.17 1890.68,51.56"/>
    </edge>
    <edge id=":J3_6" function="internal">
        <lane id=":J3_6_0" index="0" speed="22.22" length="67.21" shape="1829.30,55.20 1896.51,55.20"/>
        <lane id=":J3_6_1" index="1" speed="22.22" length="67.21" shape="1829.30,58.40 1896.51,58.40"/>
    </edge>
    <edge id=":J9_0" function="internal">
        <lane id=":J9_0_0" index="0" speed="11.11" length="44.21" shape="1438.14,71.66 1430.68,70.38 1418.02,69.70 1404.42,69.95 1394.17,71.43"/>
    </edge>
    <edge id=":J9_1" function="internal">
        <lane id=":J9_1_0" index="0" speed="16.66" length="45.78" shape="1438.89,68.00 1426.77,67.64 1414.02,67.08 1402.28,67.07 1393.23,68.37"/>
    </edge>
    <edge id=":J9_2" function="internal">
        <lane id=":J9_2_0" index="0" speed="22.22" length="46.21" shape="1438.89,64.80 1392.69,64.80"/>
        <lane id=":J9_2_1" index="1" speed="22.22" length="46.21" shape="1438.89,61.60 1392.69,61.60"/>
    </edge>
    <edge id=":J9_4" function="internal">
        <lane id=":J9_4_0" index="0" speed="22.22" length="46.21" shape="1392.69,52.00 1438.89,52.00"/>
        <lane id=":J9_4_1" index="1" speed="22.22" length="46.21" shape="1392.69,55.20 1438.89,55.20"/>
        <lane id=":J9_4_2" index="2" speed="22.22" length="46.21" shape="1392.69,58.40 1438.89,58.40"/>
    </edge>

    <edge id="EI1" from="J15" to="J3" priority="-1">
        <lane id="EI1_0" index="0" speed="11.11" length="62.25" shape="1954.27,93.59 1894.98,74.63"/>
        <lane id="EI1_1" index="1" speed="11.11" length="62.25" shape="1955.24,90.54 1895.96,71.58"/>
    </edge>
    <edge id="EI2" from="J14" to="J9" priority="-1">
        <lane id="EI2_0" index="0" speed="11.11" length="29.44" shape="1465.20,83.26 1438.14,71.66"/>
    </edge>
    <edge id="EI3" from="J8" to="J1" priority="-1" length="100.01">
        <lane id="EI3_0" index="0" speed="11.11" length="100.01" shape="395.15,91.40 339.34,69.36"/>
    </edge>
    <edge id="EM1" from="J4" to="J3" priority="-1">
        <lane id="EM1_0" index="0" speed="22.22" length="68.49" shape="1965.00,68.00 1896.51,68.00"/>
        <lane id="EM1_1" index="1" speed="22.22" length="68.49" shape="1965.00,64.80 1896.51,64.80"/>
        <lane id="EM1_2" index="2" speed="22.22" length="68.49" shape="1965.00,61.60 1896.51,61.60"/>
    </edge>
    <edge id="EM2" from="J3" to="J9" priority="-1">
        <lane id="EM2_0" index="0" speed="22.22" length="390.41" shape="1829.30,68.00 1438.89,68.00"/>
        <lane id="EM2_1" index="1" speed="22.22" length="390.41" shape="1829.30,64.80 1438.89,64.80"/>
        <lane id="EM2_2" index="2" speed="22.22" length="390.41" shape="1829.30,61.60 1438.89,61.60"/>
    </edge>
    <edge id="EM3" from="J9" to="J2" priority="-1">
        <lane id="EM3_0" index="0" speed="22.22" length="94.59" shape="1392.69,64.80 1298.10,64.80"/>
        <lane id="EM3_1" index="1" speed="22.22" length="94.59" shape="1392.69,61.60 1298.10,61.60"/>
    </edge>
    <edge id="EM4" from="J2" to="J1" priority="-1">
        <lane id="EM4_0" index="0" speed="22.22" length="933.15" shape="1289.63,64.80 356.48,64.80"/>
        <lane id="EM4_1" index="1" speed="22.22" length="933.15" shape="1289.63,61.60 356.48,61.60"/>
    </edge>
    <edge id="EM5" from="J1" to="J0" priority="-1">
        <lane id="EM5_0" index="0" speed="22.22" length="328.97" shape="321.87,68.49 -1.47,7.86"/>
        <lane id="EM5_1" index="1" speed="22.22" length="328.97" shape="322.46,65.34 -0.88,4.72"/>
        <lane id="EM5_2" index="2" speed="22.22" length="328.97" shape="323.05,62.20 -0.29,1.57"/>
    </edge>
    <edge id="EO1" from="J3" to="J16" priority="-1">
        <lane id="EO1_0" index="0" speed="11.11" length="40.94" shape="1829.79,71.55 1790.37,82.61"/>
    </edge>
    <edge id="EO2" from="J9" to="J13" priority="-1">
        <lane id="EO2_0" index="0" speed="11.11" length="26.60" shape="1394.17,71.43 1368.74,79.25"/>
        <lane id="EO2_1" index="1" speed="11.11" length="26.60" shape="1393.23,68.37 1367.80,76.19"/>
    </edge>
    <edge id="WI1" from="J12" to="J2" priority="-1">
        <lane id="WI1_0" index="0" speed="11.11" length="61.10" shape="1231.28,33.26 1289.81,50.79"/>
    </edge>
    <edge id="WM1" from="J0" to="J1" priority="-1" length="325.00">
        <lane id="WM1_0" index="0" speed="22.22" length="325.00" shape="0.88,-4.72 324.22,55.91"/>
        <lane id="WM1_1" index="1" speed="22.22" length="325.00" shape="0.29,-1.57 323.63,59.05"/>
    </edge>
    <edge id="WM2" from="J1" to="J2" priority="-1">
        <lane id="WM2_0" index="0" speed="22.22" length="933.15" shape="356.48,55.20 1289.63,55.20"/>
        <lane id="WM2_1" index="1" speed="22.22" length="933.15" shape="356.48,58.40 1289.63,58.40"/>
    </edge>
    <edge id="WM3" from="J2" to="J9" priority="-1">
        <lane id="WM3_0" index="0" speed="22.22" length="94.59" shape="1298.10,52.00 1392.69,52.00"/>
        <lane id="WM3_1" index="1" speed="22.22" length="94.59" shape="1298.10,55.20 1392.69,55.20"/>
        <lane id="WM3_2" index="2" speed="22.22" length="94.59" shape="1298.10,58.40 1392.69,58.40"/>
    </edge>
    <edge id="WM4" from="J9" to="J3" priority="-1">
        <lane id="WM4_0" index="0" speed="22.22" length="390.41" shape="1438.89,52.00 1829.30,52.00"/>
        <lane id="WM4_1" index="1" speed="22.22" length="390.41" shape="1438.89,55.20 1829.30,55.20"/>
        <lane id="WM4_2" index="2" speed="22.22" length="390.41" shape="1438.89,58.40 1829.30,58.40"/>
    </edge>
    <edge id="WM5" from="J3" to="J4" priority="-1">
        <lane id="WM5_0" index="0" speed="22.22" length="68.49" shape="1896.51,55.20 1965.00,55.20"/>
        <lane id="WM5_1" index="1" speed="22.22" length="68.49" shape="1896.51,58.40 1965.00,58.40"/>
    </edge>
    <edge id="WO1" from="J1" to="J10" priority="-1">
        <lane id="WO1_0" index="0" speed="11.11" length="64.37" shape="356.09,51.26 419.25,38.81"/>
    </edge>
    <edge id="WO2" from="J3" to="J18" priority="-1">
        <lane id="WO2_0" index="0" speed="11.11" length="66.63" shape="1890.68,51.56 1955.10,34.55"/>
    </edge>

    <junction id="J0" type="dead_end" x="0.00" y="0.00" incLanes="EM5_0 EM5_1 EM5_2" intLanes="" shape="0.00,0.00 -1.77,9.44 0.00,0.00"/>
    <junction id="J1" type="priority" x="320.00" y="60.00" incLanes="EI3_0 EM4_0 EM4_1 WM1_0 WM1_1" intLanes=":J1_0_0 :J1_1_0 :J1_1_1 :J1_3_0 :J1_4_0 :J1_4_1" shape="338.75,70.85 339.93,67.87 340.79,66.94 343.58,66.68 347.39,66.51 351.83,66.42 356.48,66.40 356.48,53.60 356.40,52.83 355.78,49.69 349.16,51.29 344.24,52.90 340.16,54.25 336.08,55.10 331.15,55.21 324.52,54.34 321.57,70.06 325.22,70.45 328.00,70.27 330.33,69.86 332.62,69.59 335.29,69.80">
        <request index="0" response="000000" foes="000000" cont="0"/>
        <request index="1" response="000000" foes="000000" cont="0"/>
        <request index="2" response="000000" foes="000000" cont="0"/>
        <request index="3" response="000000" foes="000000" cont="0"/>
        <request index="4" response="000000" foes="000000" cont="0"/>
        <request index="5" response="000000" foes="000000" cont="0"/>
    </junction>
    <junction id="J10" type="dead_end" x="419.56" y="40.38" incLanes="WO1_0" intLanes="" shape="418.94,37.24 419.56,40.38"/>
    <junction id="J12" type="dead_end" x="1230.82" y="34.79" incLanes="" intLanes="" shape="1230.82,34.79 1231.74,31.72"/>
    <junction id="J13" type="dead_end" x="1367.33" y="74.66" incLanes="EO2_0 EO2_1" intLanes="" shape="1369.21,80.78 1367.33,74.66"/>
    <junction id="J14" type="dead_end" x="1465.83" y="81.79" incLanes="" intLanes="" shape="1465.83,81.79 1464.57,84.73"/>
    <junction id="J15" type="dead_end" x="1955.73" y="89.02" incLanes="" intLanes="" shape="1955.73,89.02 1953.78,95.12"/>
    <junction id="J16" type="dead_end" x="1789.94" y="81.07" incLanes="EO1_0" intLanes="" shape="1790.80,84.15 1789.94,81.07"/>
    <junction id="J18" type="dead_end" x="1955.51" y="36.10" incLanes="WO2_0" intLanes="" shape="1954.69,33.01 1955.51,36.10"/>
    <junction id="J2" type="priority" x="1315.00" y="60.00" incLanes="EM3_0 EM3_1 WI1_0 WM2_0 WM2_1" intLanes=":J2_0_0 :J2_0_1 :J2_2_0 :J2_3_0 :J2_3_1" shape="1298.10,66.40 1298.10,50.40 1295.15,50.35 1294.12,50.25 1293.10,50.05 1291.89,49.73 1290.27,49.25 1289.35,52.32 1289.63,53.60 1289.63,66.40">
        <request index="0" response="00000" foes="00000" cont="0"/>
        <request index="1" response="00000" foes="00000" cont="0"/>
        <request index="2" response="00000" foes="00000" cont="0"/>
        <request index="3" response="00000" foes="00000" cont="0"/>
        <request index="4" response="00000" foes="00000" cont="0"/>
    </junction>
    <junction id="J3" type="priority" x="1865.00" y="60.00" incLanes="EI1_0 EI1_1 EM1_0 EM1_1 EM1_2 WM4_0 WM4_1 WM4_2" intLanes=":J3_0_0 :J3_1_0 :J3_2_0 :J3_2_1 :J3_2_2 :J3_5_0 :J3_6_0 :J3_6_1" shape="1894.49,76.15 1896.44,70.06 1896.51,69.60 1896.51,53.60 1894.34,53.59 1892.68,53.55 1891.52,53.48 1890.87,53.38 1890.73,53.26 1891.09,53.11 1890.27,50.02 1879.10,52.26 1869.28,52.95 1860.10,52.60 1850.85,51.72 1840.82,50.81 1829.30,50.40 1829.30,69.60 1829.36,70.01 1830.22,73.09 1841.69,70.44 1852.29,69.19 1862.45,69.23 1872.60,70.47 1883.14,72.81">
        <request index="0" response="00000000" foes="00000000" cont="0"/>
        <request index="1" response="00011100" foes="00011100" cont="0"/>
        <request index="2" response="00000000" foes="00000010" cont="0"/>
        <request index="3" response="00000000" foes="00000010" cont="0"/>
        <request index="4" response="00000000" foes="00000010" cont="0"/>
        <request index="5" response="00000000" foes="00000000" cont="0"/>
        <request index="6" response="00000000" foes="00000000" cont="0"/>
        <request index="7" response="00000000" foes="00000000" cont="0"/>
    </junction>
    <junction id="J4" type="dead_end" x="1965.00" y="60.00" incLanes="WM5_0 WM5_1" intLanes="" shape="1965.00,60.00 1965.00,53.60 1965.00,60.00"/>
    <junction id="J8" type="dead_end" x="395.74" y="89.91" incLanes="" intLanes="" shape="395.74,89.91 394.56,92.89"/>
    <junction id="J9" type="priority" x="1415.00" y="60.00" incLanes="EI2_0 EM2_0 EM2_1 EM2_2 WM3_0 WM3_1 WM3_2" intLanes=":J9_0_0 :J9_1_0 :J9_2_0 :J9_2_1 :J9_4_0 :J9_4_1 :J9_4_2" shape="1437.51,73.13 1438.77,70.19 1438.89,69.60 1438.89,50.40 1392.69,50.40 1392.69,66.40 1392.76,66.84 1394.64,72.96 1403.56,70.20 1410.48,68.33 1416.37,67.51 1422.19,67.93 1428.92,69.75">
        <request index="0" response="0000000" foes="0000000" cont="0"/>
        <request index="1" response="0000000" foes="0000000" cont="0"/>
        <request index="2" response="0000000" foes="0000000" cont="0"/>
        <request index="3" response="0000000" foes="0000000" cont="0"/>
        <request index="4" response="0000000" foes="0000000" cont="0"/>
        <request index="5" response="0000000" foes="0000000" cont="0"/>
        <request index="6" response="0000000" foes="0000000" cont="0"/>
    </junction>

    <connection from="EI1" to="EO1" fromLane="0" toLane="0" via=":J3_0_0" dir="R" state="M"/>
    <connection from="EI1" to="EM2" fromLane="1" toLane="0" via=":J3_1_0" dir="s" state="m"/>
    <connection from="EI2" to="EO2" fromLane="0" toLane="0" via=":J9_0_0" dir="R" state="M"/>
    <connection from="EI3" to="EM5" fromLane="0" toLane="0" via=":J1_0_0" dir="s" state="M"/>
    <connection from="EM1" to="EM2" fromLane="0" toLane="0" via=":J3_2_0" dir="s" state="M"/>
    <connection from="EM1" to="EM2" fromLane="1" toLane="1" via=":J3_2_1" dir="s" state="M"/>
    <connection from="EM1" to="EM2" fromLane="2" toLane="2" via=":J3_2_2" dir="s" state="M"/>
    <connection from="EM2" to="EO2" fromLane="0" toLane="1" via=":J9_1_0" dir="R" state="M"/>
    <connection from="EM2" to="EM3" fromLane="1" toLane="0" via=":J9_2_0" dir="s" state="M"/>
    <connection from="EM2" to="EM3" fromLane="2" toLane="1" via=":J9_2_1" dir="s" state="M"/>
    <connection from="EM3" to="EM4" fromLane="0" toLane="0" via=":J2_0_0" dir="s" state="M"/>
    <connection from="EM3" to="EM4" fromLane="1" toLane="1" via=":J2_0_1" dir="s" state="M"/>
    <connection from="EM4" to="EM5" fromLane="0" toLane="1" via=":J1_1_0" dir="s" state="M"/>
    <connection from="EM4" to="EM5" fromLane="1" toLane="2" via=":J1_1_1" dir="s" state="M"/>
    <connection from="WI1" to="WM3" fromLane="0" toLane="0" via=":J2_2_0" dir="s" state="M"/>
    <connection from="WM1" to="WO1" fromLane="0" toLane="0" via=":J1_3_0" dir="R" state="M"/>
    <connection from="WM1" to="WM2" fromLane="0" toLane="0" via=":J1_4_0" dir="s" state="M"/>
    <connection from="WM1" to="WM2" fromLane="1" toLane="1" via=":J1_4_1" dir="s" state="M"/>
    <connection from="WM2" to="WM3" fromLane="0" toLane="1" via=":J2_3_0" dir="s" state="M"/>
    <connection from="WM2" to="WM3" fromLane="1" toLane="2" via=":J2_3_1" dir="s" state="M"/>
    <connection from="WM3" to="WM4" fromLane="0" toLane="0" via=":J9_4_0" dir="s" state="M"/>
    <connection from="WM3" to="WM4" fromLane="1" toLane="1" via=":J9_4_1" dir="s" state="M"/>
    <connection from="WM3" to="WM4" fromLane="2" toLane="2" via=":J9_4_2" dir="s" state="M"/>
    <connection from="WM4" to="WO2" fromLane="0" toLane="0" via=":J3_5_0" dir="R" state="M"/>
    <connection from="WM4" to="WM5" fromLane="1" toLane="0" via=":J3_6_0" dir="s" state="M"/>
    <connection from="WM4" to="WM5" fromLane="2" toLane="1" via=":J3_6_1" dir="s" state="M"/>

    <connection from=":J1_0" to="EM5" fromLane="0" toLane="0" dir="s" state="M"/>
    <connection from=":J1_1" to="EM5" fromLane="0" toLane="1" dir="s" state="M"/>
    <connection from=":J1_1" to="EM5" fromLane="1" toLane="2" dir="s" state="M"/>
    <connection from=":J1_3" to="WO1" fromLane="0" toLane="0" dir="R" state="M"/>
    <connection from=":J1_4" to="WM2" fromLane="0" toLane="0" dir="s" state="M"/>
    <connection from=":J1_4" to="WM2" fromLane="1" toLane="1" dir="s" state="M"/>
    <connection from=":J2_0" to="EM4" fromLane="0" toLane="0" dir="s" state="M"/>
    <connection from=":J2_0" to="EM4" fromLane="1" toLane="1" dir="s" state="M"/>
    <connection from=":J2_2" to="WM3" fromLane="0" toLane="0" dir="s" state="M"/>
    <connection from=":J2_3" to="WM3" fromLane="0" toLane="1" dir="s" state="M"/>
    <connection from=":J2_3" to="WM3" fromLane="1" toLane="2" dir="s" state="M"/>
    <connection from=":J3_0" to="EO1" fromLane="0" toLane="0" dir="R" state="M"/>
    <connection from=":J3_1" to="EM2" fromLane="0" toLane="0" dir="s" state="M"/>
    <connection from=":J3_2" to="EM2" fromLane="0" toLane="0" dir="s" state="M"/>
    <connection from=":J3_2" to="EM2" fromLane="1" toLane="1" dir="s" state="M"/>
    <connection from=":J3_2" to="EM2" fromLane="2" toLane="2" dir="s" state="M"/>
    <connection from=":J3_5" to="WO2" fromLane="0" toLane="0" dir="R" state="M"/>
    <connection from=":J3_6" to="WM5" fromLane="0" toLane="0" dir="s" state="M"/>
    <connection from=":J3_6" to="WM5" fromLane="1" toLane="1" dir="s" state="M"/>
    <connection from=":J9_0" to="EO2" fromLane="0" toLane="0" dir="R" state="M"/>
    <connection from=":J9_1" to="EO2" fromLane="0" toLane="1" dir="R" state="M"/>
    <connection from=":J9_2" to="EM3" fromLane="0" toLane="0" dir="s" state="M"/>
    <connection from=":J9_2" to="EM3" fromLane="1" toLane="1" dir="s" state="M"/>
    <connection from=":J9_4" to="WM4" fromLane="0" toLane="0" dir="s" state="M"/>
    <connection from=":J9_4" to="WM4" fromLane="1" toLane="1" dir="s" state="M"/>
    <connection from=":J9_4" to="WM4" fromLane="2" toLane="2" dir="s" state="M"/>

</net>
